82

C      49.923149999999993     45.549749999999989     50.572299999999998
C      48.668650000000000     46.207349999999998     50.529100000000007
C      46.477049999999998     51.839250000000000     47.984200000000001
C      50.896650000000001     45.737649999999995     49.591699999999996
C      46.631149999999998     51.286549999999998     46.782000000000004
C      48.536749999999998     47.269349999999996     49.559500000000007
C      47.528649999999999     52.446549999999995     48.950499999999998
C      49.671150000000004     51.522349999999996     44.371099999999998
C      51.872949999999996     47.800450000000005     48.066800000000001
C      51.713350000000013     49.958149999999996     46.955300000000001
C      48.115850000000002     51.345049999999993     46.293900000000001
C      50.890950000000004     47.032050000000005     48.993599999999994
C      50.621949999999991     50.575849999999996     46.304000000000002
C      51.035549999999994     49.053649999999998     47.794499999999999
C      49.722450000000002     47.907249999999998     48.941499999999998
C      49.033450000000002     50.625949999999996     48.408200000000001
C      49.241250000000001     50.831049999999998     46.987499999999997
C      49.786650000000002     49.300249999999998     48.522500000000001
C      50.161949999999997     44.457550000000005     51.363499999999995
C      48.960650000000001     43.858849999999997     51.963600000000007
C      47.728549999999998     44.498449999999998     52.186000000000000
C      47.589849999999998     45.617150000000002     51.420399999999994
C      45.140850000000000     52.190649999999998     48.616499999999995
C      43.830449999999999     51.949449999999992     47.741900000000001
C      44.195450000000001     51.758549999999993     46.443199999999997
C      45.512250000000002     51.380749999999999     45.956400000000002
C      51.501250000000006     43.723849999999992     51.221499999999999
C      51.628150000000005     42.547549999999994     51.946499999999993
C      50.535249999999998     42.133050000000004     52.679600000000001
C      49.164549999999998     42.623749999999994     52.685799999999993
C      52.108850000000011     45.002649999999996     49.228800000000000
C      52.429349999999999     44.163049999999991     50.279000000000003
C      45.386749999999999     50.957349999999998     44.523099999999999
C      48.389150000000001     51.793150000000004     45.002000000000002
C      47.262650000000001     47.736049999999999     48.945500000000003
C      45.250950000000003     44.931450000000005     51.794099999999993
C      46.130350000000000     45.885650000000005     51.295700000000004
C      44.994450000000001     43.692249999999994     52.337899999999998
C      45.519550000000002     51.857049999999994     43.461199999999998
C      46.137850000000000     48.075449999999996     48.592999999999996
C      44.940750000000001     48.243050000000004     48.392200000000003
C      51.293450000000000     50.377149999999993     50.691700000000004
C      48.354950000000002     51.371649999999995     49.420200000000001
C      50.530250000000002     51.652949999999997     50.747899999999994
C      49.054850000000002     51.804549999999999     50.562099999999994
C      51.041850000000004     53.009949999999996     51.088299999999997
C      48.390450000000001     52.920449999999995     51.186100000000003
C      50.546950000000002     54.230849999999997     51.732499999999995
C      49.204149999999998     54.082850000000001     51.565000000000005
H      48.107150000000004     53.181549999999994     48.296700000000001
H      46.880749999999999     53.099550000000001     49.540299999999995
H      52.662549999999989     48.456849999999996     48.821000000000005
H      52.512950000000004     47.199249999999999     47.330900000000000
H      52.497950000000010     49.458949999999994     46.356000000000002
H      46.861850000000004     44.044949999999993     52.552900000000001
H      44.956750000000000     52.463850000000001     49.658099999999997
H      42.809350000000002     51.960550000000005     48.270800000000001
H      43.797449999999998     52.375650000000000     45.550300000000000
H      52.457349999999998     41.741650000000000     51.844100000000005
H      50.723250000000000     41.177450000000000     53.121800000000000
H      48.443550000000002     42.325949999999999     53.256899999999995
H      52.507349999999995     44.802249999999994     48.238700000000001
H      53.190649999999998     43.480550000000001     50.056800000000003
H      44.941350000000000     49.960050000000003     44.357900000000001
H      49.734450000000002     51.539650000000002     43.401400000000002
H      47.666550000000001     52.405650000000001     44.292099999999998
H      45.229350000000004     43.203250000000004     53.376500000000000
H      45.777749999999997     46.711350000000003     50.816600000000001
H      45.167050000000003     42.941749999999992     51.425900000000006
H      45.868949999999998     52.912649999999992     43.475999999999999
H      44.864350000000002     51.917449999999995     42.623500000000000
H      44.721850000000003     49.344550000000005     48.695500000000003
H      44.231650000000002     47.230349999999994     48.026800000000001
H      51.426549999999999     49.868950000000005     49.638700000000007
H      52.256350000000005     50.596550000000001     51.471799999999995
H      47.543849999999999     50.655250000000002     49.704900000000002
H      50.199750000000002     49.430649999999993     51.185799999999993
H      52.213149999999992     53.142949999999992     51.550999999999995
H      47.439850000000000     53.019849999999998     50.976499999999994
H      50.992049999999999     54.765549999999998     52.589899999999993
H      48.722949999999997     54.822550000000000     52.193599999999996
N      50.672850000000004     50.932150000000000     45.110300000000002
