20

C      45.653599999999990     49.342100000000002     50.142249999999990
C      46.540300000000002     49.247700000000002     48.963149999999999
C      47.767099999999999     49.330199999999998     46.358549999999994
C      47.613299999999995     48.377299999999998     49.324649999999998
C      48.317499999999995     48.361700000000006     46.888049999999993
C      48.450099999999992     47.969200000000008     48.273349999999994
C      49.057400000000001     47.483300000000007     45.902249999999995
C      49.455799999999996     47.123500000000000     48.562649999999998
C      50.092500000000001     46.704299999999996     46.325449999999996
C      50.260499999999993     46.429600000000001     47.635549999999995
H      45.994399999999999     49.208700000000000     51.178450000000005
H      46.573999999999998     49.917300000000004     48.083849999999998
H      48.581699999999998     50.095999999999997     46.568449999999999
H      47.727900000000005     49.345400000000005     45.256649999999993
H      47.644499999999994     47.704799999999999     50.254049999999985
H      44.852999999999994     50.088700000000010     49.850049999999996
H      48.850700000000003     47.427200000000006     44.821549999999995
H      49.942800000000005     47.442100000000003     49.520449999999997
H      50.585899999999995     45.986499999999999     45.672249999999998
H      51.147000000000006     45.904000000000003     48.046049999999994
