18

C      46.954719999999995     50.221099999999986     47.585399999999993
C      46.500319999999995     49.551199999999994     46.319899999999997
C      47.683820000000004     49.721599999999995     48.595800000000004
C      46.431419999999996     48.200000000000003     46.603500000000004
C      47.929920000000003     48.374499999999998     48.389299999999999
C      47.339419999999997     47.452799999999996     47.454200000000000
C      49.004420000000003     47.776499999999999     49.258299999999998
C      48.041019999999996     46.146699999999996     47.392099999999999
C      49.373320000000000     46.492499999999993     49.376700000000007
C      48.717120000000001     45.621600000000001     48.418300000000002
H      46.958120000000001     51.367400000000004     47.580300000000001
H      45.647219999999997     50.267200000000003     45.969100000000005
H      48.256220000000006     50.463300000000004     49.145600000000009
H      45.925919999999998     47.412800000000004     45.967500000000001
H      49.625220000000006     48.322500000000005     50.032499999999999
H      47.839819999999996     45.864800000000002     46.513399999999997
H      50.352780000000003     46.139799999999994     49.821199999999997
H      48.967819999999996     44.632599999999996     48.359299999999998
