118

C      47.207549999999998     47.227099999999993     49.103149999999985
C      47.379849999999990     48.531999999999989     49.468150000000009
C      45.997050000000002     46.776299999999999     48.312750000000008
C      44.707849999999993     47.573099999999997     46.446349999999995
C      45.530450000000002     47.800900000000006     47.674050000000008
C      45.888649999999998     49.227999999999987     48.170150000000007
C      48.107550000000003     46.163499999999999     49.586950000000002
C      50.437049999999999     48.413799999999988     49.045750000000012
C      48.604050000000001     49.017799999999994     50.174350000000004
C      44.182149999999993     48.825500000000005     45.871850000000009
C      54.591049999999996     49.427900000000001     50.283850000000001
C      54.761649999999989     49.681799999999996     48.806150000000002
C      56.617249999999999     45.001600000000003     49.432150000000007
C      56.980149999999995     45.353099999999998     48.054950000000005
C      54.722149999999999     48.041400000000003     50.624450000000010
C      55.571950000000001     48.763199999999991     47.940250000000006
C      55.673050000000003     45.767400000000002     50.166550000000001
C      56.655749999999998     46.664800000000000     47.552450000000007
C      55.494349999999997     47.146400000000000     49.840150000000008
C      56.093149999999994     47.540200000000006     48.610750000000010
C      54.471549999999993     50.407499999999999     51.442150000000012
C      54.583749999999995     51.829400000000007     51.267550000000000
C      54.605149999999995     52.061099999999989     49.869050000000001
C      54.565849999999998     51.144700000000000     48.728750000000005
C      57.006249999999994     43.631900000000002     49.615650000000002
C      57.805250000000001     42.958500000000001     48.644649999999999
C      57.464349999999996     43.027799999999999     47.294150000000002
C      57.235649999999993     44.321800000000003     47.021350000000012
C      53.898849999999996     47.532600000000009     51.754050000000007
C      53.367949999999993     48.579999999999998     52.555650000000000
C      53.730549999999994     49.989999999999995     52.522850000000005
C      55.621849999999995     49.301100000000012     46.608649999999997
C      54.744649999999993     48.600800000000007     45.737949999999998
C      54.013949999999994     51.657200000000003     47.399250000000009
C      56.521850000000001     49.999899999999990     46.263549999999995
C      49.525849999999991     49.485800000000005     48.837450000000004
C      51.587649999999996     49.487699999999997     47.262150000000005
C      49.545850000000002     50.561099999999989     47.990549999999999
C      50.479050000000001     50.503000000000007     46.847350000000006
C      49.124250000000004     51.869999999999997     48.489650000000012
C      50.419849999999997     51.672700000000006     46.040050000000008
C      48.688949999999991     52.796500000000002     47.376450000000006
C      49.451949999999997     52.700999999999993     46.272649999999999
C      42.061250000000001     47.253399999999999     47.383550000000000
C      42.063450000000003     44.623899999999999     46.756150000000005
C      40.731349999999992     46.565199999999997     47.296350000000004
C      40.632249999999999     45.219000000000001     46.851250000000007
C      39.389349999999993     47.144599999999997     47.352050000000006
C      39.391449999999992     44.699199999999998     46.397950000000009
C      38.215249999999997     46.766300000000001     46.592550000000003
C      38.357950000000002     45.596499999999999     45.937049999999999
C      42.708150000000003     46.064700000000002     46.686450000000008
C      44.064849999999993     46.201999999999998     46.293350000000004
C      52.434749999999994     44.750100000000003     48.122350000000012
C      53.266350000000003     47.830100000000002     46.276650000000004
C      53.927350000000004     45.275100000000002     48.017050000000012
C      51.820749999999990     48.715899999999998     45.916350000000008
C      54.097649999999987     45.390599999999999     46.548450000000003
C      53.284250000000000     46.426299999999998     45.744749999999996
C      54.610450000000000     44.325899999999997     45.645350000000008
C      53.136550000000000     46.134200000000000     44.319649999999996
C      54.190649999999991     43.963900000000002     44.364249999999998
C      53.307249999999996     44.897500000000001     43.758350000000007
H      45.837649999999996     45.634500000000003     48.038850000000011
H      48.242949999999993     49.937099999999994     50.807450000000003
H      44.012249999999995     48.813699999999997     44.849249999999998
H      44.169150000000002     49.725299999999997     46.510750000000002
H      55.367649999999998     45.311199999999999     51.128350000000012
H      57.194649999999996     47.231099999999991     46.591750000000005
H      55.199849999999998     52.320200000000007     52.098150000000004
H      54.764349999999993     53.046399999999998     49.658650000000009
H      58.639449999999997     42.385800000000003     48.969650000000001
H      57.813149999999993     42.321500000000000     46.473950000000002
H      57.004649999999998     44.499600000000001     45.973650000000006
H      53.367750000000001     46.545999999999999     51.484750000000005
H      53.163550000000001     50.818700000000007     52.991849999999999
H      52.593949999999992     48.496800000000000     53.260750000000002
H      57.133949999999999     50.797799999999995     47.090750000000000
H      55.589150000000004     47.870500000000000     45.266750000000002
H      53.888849999999991     49.304800000000007     45.286150000000006
H      53.627749999999992     50.862300000000005     46.709750000000000
H      53.111349999999987     52.395700000000005     47.780450000000002
H      55.928550000000001     43.204000000000001     51.153350000000003
H      56.248750000000001     50.791800000000002     45.562950000000001
H      54.724449999999990     52.289899999999996     46.705449999999999
H      44.703949999999992     45.145400000000002     46.071750000000009
H      49.105750000000000     48.264300000000006     50.814950000000010
H      50.511150000000001     47.547800000000002     49.737250000000003
H      52.450049999999990     50.087599999999995     47.697749999999999
H      48.760449999999992     51.949499999999993     49.431550000000001
H      51.310849999999988     52.029700000000005     45.300250000000005
H      47.984049999999996     53.678500000000000     47.589050000000000
H      49.033450000000002     53.069499999999998     45.401250000000005
H      42.511650000000003     47.343299999999999     48.411850000000001
H      43.004449999999991     47.989300000000000     47.291150000000002
H      42.339649999999992     44.137000000000000     45.758949999999999
H      42.604550000000003     44.244199999999999     47.569950000000006
H      39.498949999999994     48.096499999999999     47.999850000000009
H      39.284850000000006     43.655099999999997     45.690049999999999
H      37.360550000000003     47.167099999999998     45.995850000000004
H      37.684150000000002     45.079200000000000     45.308850000000007
H      45.198149999999998     50.032099999999993     47.834950000000006
H      52.280249999999995     43.634300000000003     47.695950000000011
H      51.626249999999999     45.341999999999999     47.581350000000000
H      52.108649999999997     48.881000000000007     44.845250000000007
H      53.610849999999999     47.631500000000010     47.399050000000003
H      52.162549999999996     44.219299999999997     49.119050000000001
H      53.773150000000001     46.300800000000002     48.741550000000004
H      50.881050000000002     48.084600000000002     45.946950000000001
H      55.011650000000003     43.604199999999999     46.226349999999996
H      52.472549999999998     46.852400000000003     43.609949999999998
H      54.309249999999992     43.048499999999997     43.868449999999996
H      52.842449999999999     44.927300000000002     42.739249999999998
H      54.637850000000000     44.421100000000003     48.373249999999999
N      46.622450000000001     49.578300000000006     49.140250000000009
N      49.159350000000003     45.876700000000000     49.619750000000010
O      51.301549999999992     48.244799999999998     48.073850000000007
O      56.663150000000002     42.985500000000002     50.785650000000004
