16

C      45.787249999999993     47.514449999999997     48.407649999999990
C      47.949950000000001     45.981249999999996     46.914050000000003
C      47.109150000000000     47.987450000000003     48.497550000000004
C      48.051150000000007     47.196350000000002     47.701149999999998
C      47.765650000000001     49.051150000000000     49.265350000000012
C      49.266549999999995     47.855550000000001     47.479349999999997
C      48.951450000000008     49.633050000000004     48.778750000000002
C      49.916150000000002     49.131449999999994     47.811149999999998
H      44.974350000000001     47.547750000000001     49.141750000000002
H      45.292450000000002     47.284749999999995     47.428449999999998
H      46.947050000000004     45.290450000000000     46.701149999999998
H      47.590050000000005     46.043950000000002     45.839950000000002
H      47.251350000000002     49.012949999999996     50.160049999999998
H      50.188350000000000     47.372949999999996     47.068849999999998
H      49.362549999999999     50.709550000000000     48.906050000000008
H      51.025649999999999     49.260849999999998     48.146250000000009
