49

C      54.031449999999985     46.637784999999994     47.162050000000001
C      49.316950000000006     47.308865000000004     48.228650000000002
C      48.849949999999993     47.490405000000003     46.795050000000003
C      44.732150000000004     48.489825000000003     48.881850000000000
C      44.677549999999997     49.285164999999999     47.526150000000008
C      48.413150000000002     47.532984999999989     49.287750000000003
C      47.932249999999996     48.412495000000000     46.385450000000006
C      45.700549999999993     47.489395000000002     49.173950000000005
C      45.971549999999993     49.597454999999997     47.150550000000003
C      47.056650000000005     47.956294999999990     48.747750000000011
C      47.124150000000000     48.839024999999999     47.554650000000009
C      50.604550000000003     46.814034999999997     48.674750000000003
C      51.594250000000002     46.544165000000000     47.634150000000005
C      51.360450000000000     46.534604999999999     46.219650000000001
C      50.120949999999993     47.212654999999998     45.952650000000006
C      43.906449999999992     49.158045000000008     49.770850000000003
C      42.711050000000000     49.601934999999990     49.270650000000003
C      42.372950000000003     49.789854999999996     47.846750000000000
C      43.397350000000003     49.733744999999992     46.961150000000004
C      50.958550000000002     47.030065000000000     50.065550000000002
C      52.367050000000006     46.759934999999992     50.432150000000007
C      53.260450000000006     46.537804999999999     49.516550000000002
C      52.925650000000005     46.394975000000002     48.166550000000001
C      48.576650000000001     47.377594999999999     50.600850000000008
C      49.925449999999998     47.120584999999998     51.047950000000014
C      47.866349999999997     48.884875000000001     45.071650000000005
C      49.015950000000004     48.746474999999997     44.187750000000008
C      50.040049999999994     47.878115000000001     44.609550000000006
C      47.390249999999995     47.388984999999998     51.707049999999995
H      53.958950000000002     46.059305000000002     46.252150000000007
H      54.631450000000001     47.477614999999993     47.098550000000003
H      45.617149999999995     46.573725000000003     49.709450000000004
H      45.813850000000002     50.189135000000000     46.344950000000004
H      52.024450000000002     46.330334999999998     45.327550000000002
H      41.840450000000004     49.831325000000000     49.962850000000003
H      41.276550000000000     49.983094999999999     47.599450000000004
H      43.164349999999999     49.722784999999995     45.864650000000005
H      52.701750000000004     46.786254999999997     51.484650000000002
H      46.763149999999996     46.452185000000000     51.610749999999996
H      50.130949999999999     46.726064999999998     51.968550000000008
H      47.116550000000004     49.731574999999999     45.020750000000007
H      49.133250000000004     49.291305000000001     43.227050000000006
H      50.818150000000003     47.542735000000000     43.940150000000003
H      44.629649999999998     48.962475000000005     51.742950000000008
H      54.464050000000000     45.810865000000000     50.599450000000004
H      47.855050000000006     47.729965000000000     52.772949999999994
H      46.518050000000002     48.245795000000001     51.362250000000003
O      44.170050000000003     49.521254999999989     51.100750000000005
O      54.723450000000000     46.352874999999997     49.793850000000006
