6

C      47.609099999999998     47.602594999999994     48.419049999999991
C      48.425100000000008     48.470625000000005     47.687950000000001
H      48.272500000000001     46.607745000000001     48.260049999999993
H      46.783700000000003     47.634965000000001     49.108850000000004
H      47.911200000000001     49.392254999999999     47.627049999999997
H      49.216299999999997     47.991605000000000     46.891149999999996
