6

C      47.555549999999997     47.919749999999993     47.795899999999996
C      48.661349999999992     48.197650000000003     48.535300000000007
H      47.784649999999992     47.055450000000000     46.901700000000005
H      46.526249999999997     48.364550000000001     47.851399999999998
H      49.473750000000003     47.672950000000007     47.895200000000003
H      49.070149999999991     48.944550000000000     49.098299999999995
