5

C      47.673004999999989     48.246299999999991     48.041099999999993
H      48.765005000000002     47.893999999999998     48.016999999999996
H      47.234994999999998     47.051499999999997     47.998300000000000
H      47.599575000000002     48.948500000000003     48.959299999999999
H      47.547525000000007     48.749099999999999     47.040700000000001
