5

C      47.912744999999987     47.978899999999996     47.844149999999999
H      47.140924999999996     47.363199999999992     47.283149999999999
H      47.330714999999998     48.268500000000003     48.716850000000001
H      48.859075000000004     48.690399999999997     47.702549999999995
H      48.421385000000001     47.309600000000003     48.681050000000006
