43

C      47.944899999999997     50.255149999999993     48.600049999999996
C      47.909500000000008     51.148049999999998     47.289450000000002
C      48.570800000000006     46.160650000000004     46.082449999999994
C      47.875300000000003     46.716250000000002     44.971050000000005
C      48.283500000000004     49.121449999999996     48.729650000000007
C      48.175700000000006     50.413849999999996     46.155150000000006
C      48.319800000000001     46.835050000000010     47.449250000000006
C      47.613500000000002     48.155950000000004     45.034649999999999
C      48.178400000000011     48.217950000000002     47.452349999999996
C      48.135300000000001     48.908850000000001     46.179050000000004
C      47.697400000000002     50.849350000000001     49.968950000000007
C      47.589700000000008     52.292150000000007     49.863450000000000
C      47.506700000000002     52.952349999999996     48.693550000000002
C      49.227500000000006     44.918950000000009     45.977249999999998
C      48.646900000000002     44.087550000000007     44.961849999999998
C      47.984100000000005     44.514849999999996     43.711950000000002
C      47.614900000000006     45.803550000000001     43.797150000000002
C      47.032000000000004     50.155550000000005     51.041150000000002
C      47.088800000000006     50.930350000000004     52.290350000000004
C      47.694400000000002     52.202349999999996     52.189049999999995
C      47.494000000000000     53.250250000000008     51.103949999999998
C      48.534900000000007     48.129950000000008     49.976749999999996
C      47.703700000000005     47.081249999999997     50.362249999999989
C      48.720799999999997     42.590750000000000     45.194850000000002
H      48.535499999999999     53.867850000000004     51.040349999999989
H      47.718299999999999     42.226950000000002     44.605450000000005
H      48.293300000000002     50.989249999999998     45.176550000000006
H      48.776700000000005     46.252350000000007     48.278350000000003
H      47.231100000000005     48.798650000000009     44.172349999999994
H      47.493700000000004     53.907550000000001     48.877549999999999
H      49.196600000000004     44.358950000000007     47.019450000000006
H      48.094800000000006     43.810150000000007     42.709649999999996
H      47.311400000000006     45.912450000000007     42.705150000000003
H      46.667800000000000     50.572050000000004     53.294849999999997
H      47.904000000000003     52.590649999999997     53.175349999999995
H      46.738500000000002     53.843950000000007     51.321250000000006
H      46.826300000000003     47.034649999999999     49.841049999999996
H      48.978700000000003     48.525250000000000     50.901949999999999
H      47.937400000000004     46.452849999999998     51.341350000000006
H      49.332200000000000     42.092449999999999     44.392849999999996
H      49.166499999999999     42.180250000000001     46.215149999999994
H      47.090200000000003     49.069050000000004     51.397549999999995
N      47.638600000000004     52.359949999999998     47.504549999999995
