6

C      48.275499999999994     47.577299999999994     48.567449999999994
C      47.855699999999999     48.198299999999996     47.295349999999999
H      47.615900000000003     48.098400000000005     49.308349999999997
H      49.181500000000000     47.212299999999999     48.491250000000001
H      48.549699999999994     48.787700000000001     46.691650000000003
H      46.818500000000000     48.046499999999995     46.942750000000004
