20

C      46.218549999999993     45.479349999999997     45.633584999999989
C      46.873750000000008     46.001149999999996     46.736784999999998
C      49.441049999999997     46.219249999999988     50.116569000000005
C      47.560049999999997     46.400449999999992     47.869384999999994
C      49.176250000000003     47.568049999999999     49.389685000000000
C      48.288350000000001     47.644350000000003     48.148785000000004
C      49.180749999999996     48.913049999999998     50.019811799999999
C      48.219150000000006     48.872950000000003     47.605985000000004
C      48.973850000000006     50.254349999999988     49.583784999999992
C      48.767749999999999     50.000749999999996     48.246684999999999
H      47.065249999999999     45.755649999999989     44.873384999999999
H      45.818649999999998     44.617850000000004     45.361184999999992
H      48.407750000000000     46.165649999999999     50.631216000000002
H      50.181350000000002     46.434150000000002     50.850765000000003
H      49.492150000000002     45.444150000000008     49.518484999999998
H      47.236049999999999     46.118549999999999     48.870085000000003
H      49.209350000000008     48.993750000000006     51.126615000000001
H      47.950049999999997     49.018050000000002     46.594385000000003
H      49.471250000000005     51.382149999999996     49.815984999999998
H      48.856550000000006     50.819150000000008     47.452984999999998
