55

C      49.177599999999984     47.469449999999988     48.863699999999994
C      46.046399999999998     47.321050000000000     45.063899999999997
C      48.303099999999993     46.753450000000001     47.984100000000005
C      46.479800000000004     46.565950000000001     46.223199999999999
C      49.093600000000002     49.057149999999993     48.922400000000003
C      46.096600000000002     48.753949999999989     44.921900000000001
C      48.356699999999996     50.825249999999997     47.063400000000001
C      47.403500000000001     50.612849999999995     45.958700000000000
C      47.226399999999991     47.431449999999998     47.261400000000002
C      48.332799999999999     49.691949999999991     47.887099999999997
C      46.431400000000004     49.516549999999995     46.194300000000005
C      47.219999999999992     48.794749999999993     47.201200000000000
C      49.964800000000004     46.779249999999998     49.822600000000001
C      49.782099999999993     45.329249999999995     49.794000000000004
C      49.262599999999999     44.655649999999994     48.645000000000003
C      48.383999999999993     45.346750000000000     47.669100000000000
C      47.377099999999992     44.601349999999996     46.878000000000000
C      46.511599999999994     45.112649999999995     46.017400000000002
C      45.136199999999995     46.608449999999998     44.127600000000001
C      44.565099999999994     47.415149999999997     43.140000000000001
C      44.988199999999999     48.682949999999991     42.761400000000002
C      45.935200000000002     49.458649999999992     43.617100000000001
C      45.072299999999991     45.147149999999996     44.208800000000004
C      46.141500000000001     44.411549999999991     44.822099999999999
C      50.924699999999994     47.445650000000001     50.763299999999994
C      50.756799999999991     48.240849999999995     52.048800000000007
C      47.581499999999998     51.578949999999992     44.834099999999999
C      51.514299999999999     47.596249999999998     53.358700000000006
C      52.512599999999999     46.405149999999992     53.163699999999999
C      50.683799999999998     44.548949999999998     50.708199999999998
H      49.579999999999991     49.262149999999991     49.811600000000006
H      48.873699999999992     51.798949999999991     46.985800000000005
H      49.735499999999995     43.991849999999999     47.914999999999999
H      47.898000000000003     43.605549999999994     47.007200000000005
H      44.450200000000002     48.994149999999991     41.772200000000005
H      46.684499999999993     50.081949999999992     42.883800000000001
H      46.452199999999998     43.461849999999998     44.520299999999999
H      51.303000000000004     49.209450000000004     51.660400000000003
H      49.770999999999994     48.380249999999990     52.196800000000003
H      42.752400000000002     46.383550000000000     42.440400000000004
H      44.126600000000003     43.520849999999996     44.166699999999999
H      48.111100000000000     51.285849999999996     43.709399999999995
H      47.370899999999999     52.594650000000001     45.307899999999997
H      51.937300000000000     48.509049999999995     53.991199999999999
H      51.019100000000002     46.863450000000000     54.187000000000005
H      52.723499999999994     45.760750000000002     54.227799999999995
H      52.168199999999992     45.266449999999992     52.868900000000004
H      53.247599999999998     47.118649999999995     52.867899999999999
H      50.128200000000000     44.211349999999996     51.617300000000007
H      51.811799999999998     44.901150000000001     51.094600000000007
H      50.695199999999993     43.405349999999999     50.544100000000007
H      46.553099999999993     51.632249999999999     44.305199999999999
O      51.787699999999994     47.463349999999991     49.940199999999997
O      43.630599999999994     46.680149999999998     42.205999999999996
O      43.991700000000002     44.422249999999991     43.843399999999995
