6

C      48.740699999999990     47.528799999999990     47.775259999999996
C      47.605499999999999     47.971699999999991     47.891199999999998
H      49.126899999999999     46.987800000000000     48.942779999999999
H      49.340600000000002     48.018300000000004     47.057220000000001
H      47.480600000000003     49.012200000000000     47.667900000000003
H      46.659399999999998     47.425899999999992     47.927190000000003
