5

C      48.101999999999990     48.109399999999994     47.767199999999988
H      47.966900000000003     48.068500000000000     48.855899999999998
H      48.921799999999998     48.757899999999992     47.804699999999990
H      48.142000000000003     47.190899999999999     47.163699999999999
H      47.078200000000002     48.809100000000001     47.144100000000002
