21

C      48.193949999999987     48.591749999999990     47.342999999999989
C      47.985450000000000     48.227350000000001     48.667000000000002
C      46.572450000000003     48.527349999999998     48.936500000000009
C      45.979650000000007     49.439050000000002     46.856099999999998
C      47.266249999999999     49.127250000000011     46.462500000000006
C      49.067949999999996     47.706049999999998     49.616700000000009
C      46.300849999999997     47.999650000000003     50.350200000000001
C      49.807649999999995     46.320549999999997     49.527200000000008
H      49.132450000000006     48.642249999999997     46.648099999999999
H      47.496949999999998     49.508949999999992     45.459400000000002
H      45.169950000000000     50.511350000000000     45.165999999999997
H      48.520750000000007     47.605849999999997     50.663100000000000
H      49.807050000000004     48.489350000000002     49.662800000000004
H      46.020349999999993     49.050549999999994     50.834000000000003
H      46.656850000000006     47.043750000000003     50.606600000000000
H      50.297550000000001     46.582749999999997     48.482600000000005
H      45.334649999999996     47.973149999999997     50.505600000000001
H      50.918750000000003     46.173349999999999     50.031599999999997
H      49.234250000000003     45.488650000000000     49.609099999999998
N      45.760249999999999     49.090049999999998     48.106499999999997
O      45.081249999999997     49.943649999999998     46.024500000000003
