7

C      47.479249999999993     47.305799999999991     47.565599999999996
C      48.300349999999995     48.382100000000001     48.431500000000000
H      46.902249999999995     46.793399999999998     48.445200000000000
H      49.097750000000005     47.877100000000006     49.256299999999996
H      48.668850000000006     49.206600000000002     48.038700000000006
H      47.832849999999993     48.824400000000004     49.624499999999998
O      47.387649999999994     47.448299999999996     46.375500000000002
