31

C      45.111555999999979     46.727054999999986     46.658549999999991
C      47.378869999999992     48.151454999999999     46.838549999999984
C      45.675312999999989     46.639254999999991     47.740049999999997
C      46.928509999999989     47.447954999999993     48.006550000000004
C      45.051010999999988     46.224154999999996     48.924549999999996
C      47.890029999999996     46.968154999999996     49.036950000000004
C      46.118089999999995     45.477255000000000     49.562249999999992
C      47.383299999999991     46.000754999999998     49.868650000000002
C      48.751739999999998     48.207354999999993     46.210549999999998
C      50.448859999999996     46.334254999999999     48.262249999999995
C      50.062589999999986     48.673054999999991     46.985349999999997
C      50.700559999999996     47.857254999999995     48.079449999999994
C      50.681069999999991     49.826808000000000     46.646649999999994
C      51.297449999999998     48.587355000000002     49.075050000000005
C      51.513710000000003     50.341165000000004     47.707549999999998
C      51.797460000000001     49.876452000000000     49.084050000000005
H      44.536150000000006     47.644255000000001     46.251350000000002
H      44.693650000000019     45.769655000000000     46.280649999999994
H      46.677119999999988     48.025755000000004     45.852149999999995
H      43.983649999999997     46.182254999999998     49.204249999999988
H      48.962019999999995     47.295654999999996     49.196549999999988
H      45.539109999999994     44.620355000000004     50.034549999999996
H      47.919259999999994     46.012654999999995     50.765349999999998
H      48.465899999999991     47.866455000000002     45.234650000000002
H      49.936159999999987     45.843755000000002     49.112949999999984
H      49.879350000000002     45.895754999999994     47.475549999999984
H      51.600729999999999     46.224454999999992     48.187749999999994
H      50.509599999999992     50.447545000000005     45.763449999999992
H      51.786409999999989     48.046154999999999     49.992149999999995
H      51.971979999999988     51.379644999999996     47.620149999999995
H      52.016350000000003     50.750425000000007     49.852450000000005
