5

C      47.898599999999995     47.917299999999990     48.068299999999994
H      47.480699999999999     47.431700000000006     47.302900000000001
H      48.658500000000004     47.262799999999999     48.596700000000006
H      48.390299999999996     48.737200000000001     47.466799999999999
H      47.341499999999996     48.585599999999999     48.697099999999999
