18

C      49.269199999999998     50.211949999999995     47.290599999999991
C      46.439299999999996     49.978549999999998     48.202600000000004
C      48.663400000000003     48.839350000000003     47.731800000000000
C      47.222799999999999     48.641249999999999     48.044300000000007
C      49.384700000000002     47.866749999999996     48.282299999999992
C      46.837899999999998     47.412149999999997     48.806899999999999
C      48.988999999999997     46.591350000000006     48.673900000000003
C      47.746599999999994     46.252350000000000     49.135999999999996
H      45.576600000000006     49.828350000000000     48.669200000000004
H      48.445699999999995     50.612350000000006     46.926099999999998
H      50.042399999999994     50.115949999999998     46.658500000000004
H      46.300599999999996     50.191450000000003     47.172399999999996
H      47.112100000000005     50.823650000000001     48.447000000000003
H      50.423399999999994     47.890450000000001     48.443300000000001
H      45.893899999999995     46.844450000000002     49.141300000000001
H      50.084200000000003     46.054749999999999     48.725899999999996
H      47.495200000000004     45.176349999999999     49.341499999999996
H      49.879799999999996     50.746650000000002     48.176699999999997
