17

C      49.701349999999991     46.532449999999997     48.017599999999987
C      48.463549999999998     48.003550000000004     50.511799999999994
C      49.004249999999999     47.582250000000002     48.003000000000000
C      48.478449999999995     48.320450000000001     49.024500000000003
C      48.345450000000000     47.927750000000003     46.720299999999995
C      47.220550000000003     49.096249999999998     48.702500000000001
C      47.213449999999995     48.598750000000003     46.271400000000000
C      46.623949999999994     49.428449999999991     47.526499999999999
H      49.511750000000006     47.588650000000001     50.741200000000006
H      50.098650000000006     45.979350000000004     48.841900000000010
H      50.265550000000005     46.109949999999998     46.984499999999997
H      48.022049999999993     49.029650000000004     50.823099999999997
H      47.624449999999996     47.174350000000011     50.623699999999999
H      48.395550000000000     47.271950000000011     45.827900000000000
H      46.683549999999997     49.598450000000000     49.526400000000010
H      46.906549999999996     48.430649999999993     45.176900000000003
H      45.734449999999995     50.020649999999996     47.195899999999995
