6

C      47.971649999999997     48.712499999999991     48.116549999999989
C      48.122950000000010     47.302199999999999     48.174050000000008
H      46.808050000000001     48.852100000000007     48.243450000000010
H      48.550550000000008     49.472200000000001     47.581149999999994
H      47.503850000000007     46.527799999999999     48.119249999999994
H      49.191949999999999     46.808499999999995     48.418850000000006
