6

C      48.184299999999993     47.708799999999989     47.973499999999987
C      47.546100000000003     48.764600000000002     47.872399999999999
H      48.381099999999996     46.658100000000005     47.102199999999996
H      48.642400000000002     47.299800000000005     49.026300000000006
H      47.373500000000000     49.341899999999995     46.973699999999994
H      47.357599999999998     49.148099999999999     48.951900000000009
