6

C      48.558949999999982     48.436699999999988     48.002049999999990
C      47.685449999999996     47.632999999999996     47.383449999999996
H      48.339949999999995     49.428799999999995     48.091449999999995
H      49.638950000000001     48.006600000000006     48.616550000000004
H      47.943949999999994     46.571200000000005     47.644050000000000
H      46.361049999999999     47.679999999999993     47.471649999999997
