6

C      47.611599999999996     48.288749999999993     47.445799999999998
C      48.224300000000007     47.497850000000000     48.316500000000005
H      48.199000000000005     48.993450000000003     46.911500000000004
H      46.644200000000005     48.495049999999999     47.874500000000012
H      49.355799999999995     47.330249999999999     48.473399999999998
H      47.630100000000006     47.006549999999997     49.088499999999996
