6

C      48.130199999999995     47.519249999999992     47.353349999999992
C      47.732900000000001     48.328749999999999     48.388649999999991
H      47.555000000000000     47.433549999999997     46.606249999999996
H      49.129599999999996     46.972949999999997     47.455049999999993
H      46.870400000000004     49.027050000000003     48.267049999999998
H      48.292100000000005     48.509550000000004     49.393750000000004
