5

C      47.864999999999995     48.083149999999996     47.980199999999996
H      48.719799999999999     47.069350000000000     48.319599999999994
H      47.727900000000005     47.579050000000009     47.069900000000004
H      48.437100000000001     48.930650000000000     48.020700000000005
H      47.280200000000001     48.045150000000007     48.930099999999996
