22

C      45.853574999999992     46.151149999999994     48.188024999999996
C      46.126775000000002     46.620649999999998     46.757145000000001
C      46.985095000000008     46.251449999999991     49.115555000000001
C      50.035834999999999     45.970450000000000     48.956745000000005
C      47.840744999999991     47.423450000000003     48.754115000000006
C      49.225475000000003     47.244550000000004     48.688955000000000
C      47.168545000000002     48.513249999999999     48.108495000000005
C      49.873905000000001     48.277250000000002     48.023905000000006
C      48.080835000000000     49.503149999999991     47.667455000000004
C      49.468745000000006     49.653050000000007     47.805275000000002
H      50.812075000000000     45.359949999999998     48.460685000000005
H      45.219785000000002     45.939750000000004     46.369355000000006
H      44.987225000000002     45.429250000000003     48.448114999999994
H      46.970734999999998     46.195450000000001     46.190665000000003
H      45.912704999999995     47.587149999999994     46.067715000000000
H      46.980124999999994     45.588850000000001     49.932285000000000
H      49.122165000000003     45.587449999999997     49.464265000000005
H      50.586075000000001     46.033549999999998     49.911134999999994
H      45.941085000000001     48.707450000000001     48.046385000000001
H      51.012774999999998     47.969350000000006     47.777045000000001
H      47.493504999999992     50.640050000000002     47.329715000000000
H      50.259675000000009     50.481849999999994     47.204655000000002
