20

C      50.652799999999999     49.799999999999997     47.533499999999989
C      49.527700000000003     48.784500000000008     47.419499999999992
C      49.805299999999995     47.496099999999998     48.225699999999996
C      48.333100000000002     48.786300000000011     46.806699999999999
C      48.411000000000001     47.010000000000005     48.340200000000003
C      47.543800000000005     47.779400000000010     47.555799999999998
C      47.929000000000002     45.825500000000005     49.051099999999998
C      46.106999999999999     47.908799999999999     47.890300000000003
C      46.480200000000004     46.027500000000003     49.167600000000000
C      45.532200000000003     47.179800000000000     48.891600000000004
H      51.591699999999996     49.417000000000002     47.301700000000004
H      50.926600000000001     50.189900000000009     48.553999999999995
H      50.278600000000004     50.900599999999997     46.952899999999993
H      50.607500000000009     46.993700000000004     47.793599999999991
H      50.455800000000004     47.788499999999999     49.234599999999993
H      47.988500000000002     49.513100000000009     46.159799999999997
H      48.507700000000000     45.137799999999999     49.660499999999992
H      45.615100000000005     48.911700000000010     47.774899999999995
H      46.249000000000002     45.099400000000003     49.840200000000003
H      44.408300000000004     47.421000000000006     49.080700000000000
