6

C      48.329599999999992     47.531264999999991     48.129649999999998
C      47.710999999999999     48.664865000000006     47.658750000000005
H      49.386499999999998     47.036985000000001     47.646650000000001
H      47.916899999999998     46.803164999999993     48.796849999999999
H      48.584099999999992     49.196835000000007     47.203150000000001
H      46.613500000000002     48.993435000000005     47.524250000000002
