6

C      48.478099999999998     48.440299999999986     47.741749999999996
C      47.615500000000004     47.710499999999996     48.476150000000011
H      47.818500000000000     48.826999999999984     46.806850000000004
H      49.455700000000000     49.046300000000002     48.082150000000006
H      46.544300000000000     47.731399999999994     48.155050000000010
H      48.085599999999999     46.953699999999998     49.193149999999996
