6

C      47.989799999999995     47.538549999999987     48.694699999999997
C      47.802400000000006     48.349350000000001     47.627600000000001
H      47.709299999999999     47.861350000000002     49.606799999999993
H      48.576700000000002     46.700149999999994     48.525599999999997
H      47.849599999999995     48.209750000000000     46.393200000000007
H      47.423299999999998     49.299850000000006     47.638300000000001
