20

C      49.028849999999991     45.946849999999991     49.366149999999983
C      50.231149999999992     45.649650000000008     49.895150000000001
C      48.991049999999994     46.709950000000006     48.206149999999994
C      45.758850000000002     46.643650000000008     48.190249999999992
C      48.056449999999991     47.579650000000001     47.575049999999990
C      46.666649999999997     47.821750000000009     47.846249999999998
C      48.709550000000000     48.582549999999998     46.738249999999994
C      45.944550000000000     48.764949999999999     47.049449999999993
C      48.041350000000001     49.564350000000005     46.376449999999991
C      46.505149999999993     49.719549999999998     46.272849999999991
H      48.144749999999995     45.444749999999999     49.942049999999995
H      46.029750000000000     46.458050000000000     49.255649999999989
H      49.986150000000002     46.830550000000002     47.808149999999998
H      44.813650000000003     46.921950000000010     48.070749999999990
H      45.918649999999992     46.006150000000005     47.328350000000000
H      49.865549999999992     48.588450000000009     46.733149999999995
H      44.700550000000000     48.689950000000010     47.040349999999989
H      48.594050000000003     50.477850000000004     46.458849999999998
H      45.989849999999997     50.722650000000002     45.801349999999999
O      51.299450000000000     45.277349999999998     50.198650000000001
