6

C      47.616799999999984     47.535949999999993     48.213849999999994
C      48.379500000000000     48.575350000000000     47.598649999999999
H      47.690800000000003     47.177749999999996     49.314349999999997
H      46.872199999999999     46.984949999999998     47.478950000000005
H      48.807700000000004     49.015050000000002     46.685650000000003
H      49.127800000000001     48.770750000000000     48.204650000000001
