20

C      50.111399999999996     49.142549999999986     48.838999999999984
C      45.563099999999991     47.004550000000002     49.787199999999999
C      45.554299999999998     47.875449999999994     48.465800000000002
C      47.947599999999994     48.028150000000004     48.848199999999991
C      46.857299999999995     47.815249999999999     47.941699999999997
C      49.319499999999991     48.230550000000001     48.511399999999995
C      47.346999999999994     47.199249999999999     46.701399999999992
C      49.735699999999994     47.599349999999994     47.351599999999991
C      48.687600000000003     46.983049999999999     46.613100000000003
H      44.753100000000003     47.297450000000005     47.906899999999993
H      51.246899999999997     48.857149999999997     48.627499999999998
H      49.870699999999999     49.918050000000001     49.650300000000001
H      45.007800000000003     47.830049999999993     50.311800000000005
H      46.613599999999991     46.835749999999997     50.125500000000002
H      45.046300000000002     46.081949999999999     49.640599999999992
H      45.171099999999996     48.879150000000003     48.697599999999994
H      47.788200000000003     49.046450000000000     49.409499999999994
H      46.528499999999994     46.927950000000003     45.995300000000000
H      50.914400000000001     47.699549999999995     47.202699999999993
H      48.973599999999990     46.584949999999999     45.688199999999995
