19

C      47.851479999999988     47.542000000000002     47.236699999999992
C      47.868499999999997     46.361499999999999     48.045999999999992
C      48.805729999999997     46.340499999999999     49.106099999999998
C      49.558429999999987     48.407800000000002     48.459299999999999
C      48.821809999999999     48.518400000000007     47.251199999999997
C      48.988270000000000     49.571700000000000     46.139499999999998
C      48.193079999999995     50.881800000000005     46.055099999999996
C      48.884469999999993     45.118299999999998     49.775400000000005
H      50.032910000000001     49.380600000000008     48.725399999999993
H      48.560569999999998     51.318300000000001     45.127700000000004
H      47.192839999999997     50.380299999999998     46.260700000000000
H      45.967089999999999     46.131999999999998     47.456000000000003
H      49.055880000000002     45.176600000000001     50.872299999999996
H      48.330550000000002     44.132500000000000     49.566400000000002
H      48.310440000000000     51.867500000000000     46.764400000000002
H      47.108029999999992     47.529400000000003     46.420200000000001
N      49.471129999999988     47.536700000000003     49.450800000000001
O      49.537750000000003     49.289400000000008     45.130400000000002
O      46.661949999999997     45.509700000000002     47.948099999999997
