6

C      47.725914999999993     48.489999999999995     48.413479999999993
C      48.118094999999997     47.517600000000009     47.544280000000001
H      47.084885000000000     49.198399999999999     47.829320000000003
H      48.287085000000005     48.727400000000010     49.345390000000002
H      47.501234999999994     47.285299999999999     46.654609999999998
H      48.915115000000000     46.801600000000001     47.836000000000006
