72

C      45.608684999999994     49.159019999999998     51.095349999999996
C      49.344584999999995     44.583720000000000     44.861550000000001
C      48.554884999999999     44.863419999999991     43.697850000000003
C      46.258344999999991     47.938219999999987     51.263650000000005
C      45.126514999999998     49.316719999999989     43.965250000000005
C      44.987444999999994     49.896419999999992     50.014249999999997
C      49.204984999999994     45.208219999999997     46.104550000000003
C      44.304055000000005     49.538519999999991     45.085349999999998
C      47.689985000000007     45.950919999999996     43.490250000000003
C      46.462895000000003     47.268719999999988     49.948749999999997
C      45.812704999999994     48.074519999999993     43.821850000000005
C      44.560064999999994     49.543819999999997     47.535050000000005
C      47.822384999999997     46.732720000000000     47.269350000000003
C      45.255285000000001     49.348619999999997     48.726149999999997
C      48.108784999999997     46.271819999999991     46.024850000000001
C      45.109594999999999     49.176319999999990     46.216950000000004
C      47.561684999999997     46.690819999999988     44.799950000000003
C      46.185305000000000     48.179119999999998     48.873049999999999
C      46.634195000000005     47.845819999999989     45.020950000000006
C      46.724995000000007     47.647419999999997     47.468150000000001
C      46.313945000000004     48.328119999999998     46.303550000000001
C      46.732775000000004     46.215919999999997     42.439450000000001
C      46.040135000000006     47.425019999999989     42.685949999999998
C      45.224085000000002     49.811619999999991     52.397849999999998
C      45.827025000000006     49.402619999999999     53.657850000000003
C      46.569114999999996     48.231619999999992     53.699350000000003
C      46.771964999999994     47.571019999999990     52.566250000000004
C      43.984404999999995     50.890819999999991     50.576450000000001
C      43.006045000000000     51.429620000000000     49.540550000000003
C      44.263014999999996     50.856119999999990     51.997750000000003
C      42.508314999999996     52.680819999999997     49.613350000000004
C      43.697614999999999     53.405419999999992     50.347749999999998
C      48.908884999999998     44.057419999999993     42.413550000000001
C      49.934984999999998     41.318519999999992     43.637350000000005
C      50.372884999999997     43.623219999999989     42.153849999999998
C      50.679985000000002     42.374820000000000     42.877850000000002
C      51.318784999999991     44.631819999999991     41.939749999999997
C      52.091884999999991     42.228020000000001     43.106150000000007
C      52.745085000000003     44.432220000000001     42.035750000000000
C      52.993084999999994     43.184019999999990     42.582250000000002
C      44.153104999999996     54.718097999999998     49.677450000000000
H      50.373384999999999     44.245619999999988     44.929049999999997
H      50.739284999999995     40.485119999999995     43.844550000000005
H      49.776685000000001     44.887919999999994     46.994050000000001
H      44.495265000000003     49.726319999999987     43.176549999999999
H      46.689535000000006     46.300419999999988     50.105250000000005
H      43.827044999999998     50.067319999999995     47.201450000000001
H      48.180385000000001     46.506619999999998     48.245849999999997
H      47.245255000000000     46.088219999999993     41.429850000000002
H      45.464484999999996     50.053819999999988     54.523649999999996
H      47.568185000000000     46.857019999999991     52.720250000000000
H      44.521855000000002     47.728819999999999     41.728349999999999
H      47.664285000000007     47.025520000000000     54.604549999999996
H      42.480675000000005     50.859219999999993     48.871350000000000
H      43.215185000000005     50.052219999999991     44.958850000000005
H      43.498535000000004     51.047919999999991     52.644550000000002
H      41.923815000000005     53.138520000000000     48.886749999999999
H      44.686064999999999     52.811119999999988     50.192349999999998
H      43.501855000000006     53.429220000000001     51.416050000000006
H      48.416785000000004     43.146819999999991     42.628050000000002
H      48.471684999999994     44.418819999999997     41.329850000000000
H      49.665284999999997     41.533919999999995     44.616450000000000
H      48.895785000000004     40.896119999999996     43.227750000000000
H      50.774284999999992     45.370619999999988     41.205649999999999
H      52.718284999999995     41.307919999999996     43.416850000000004
H      53.524484999999999     45.056519999999992     41.731349999999999
H      54.076184999999995     43.047319999999999     42.727350000000001
H      43.708475000000007     55.514880000000005     50.349950000000000
H      45.218495000000004     54.952260000000010     49.865550000000006
H      43.735394999999997     54.834410000000005     48.505749999999999
O      45.375895000000000     47.712219999999988     41.570250000000001
O      47.345984999999999     47.869819999999990     54.794350000000001
