16

C      47.936749999999996     46.738249999999994     49.182599999999994
C      50.140550000000005     48.422450000000005     47.899400000000000
C      48.036249999999995     47.174550000000004     47.761799999999994
C      49.026849999999996     48.249950000000005     47.357399999999998
C      47.128650000000007     46.931249999999999     46.752700000000004
C      48.507949999999994     49.174650000000007     46.471099999999993
C      46.391549999999995     48.081350000000008     46.177499999999995
C      47.066749999999999     49.254849999999998     46.200900000000004
H      48.537149999999997     47.497149999999998     50.092399999999998
H      47.419150000000002     45.834150000000001     49.690099999999987
H      50.487650000000002     47.453049999999998     48.198399999999992
H      50.653250000000000     49.160149999999994     48.496200000000002
H      46.480450000000005     46.184850000000004     46.748099999999994
H      49.130650000000003     50.075150000000001     46.235900000000001
H      45.346750000000000     48.069750000000006     45.907600000000002
H      46.412850000000006     50.165849999999999     46.293999999999997
