6

C      48.525599999999990     47.519049999999993     47.800099999999986
C      47.484099999999998     48.265750000000004     48.161299999999997
H      49.139899999999997     46.940750000000001     48.513099999999994
H      48.840499999999992     47.594750000000012     46.741699999999994
H      46.860100000000003     49.059249999999999     48.230199999999996
H      47.057699999999997     48.172150000000002     49.258300000000006
