17

C      47.451049999999995     48.972449999999995     49.774749999999997
C      50.130150000000008     47.340750000000000     48.917550000000006
C      47.581750000000007     47.892449999999997     48.677449999999993
C      48.732150000000004     47.293250000000000     48.267750000000007
C      46.433050000000001     47.305049999999994     47.962350000000001
C      48.710150000000006     46.486350000000002     47.003050000000002
C      46.388850000000005     46.673249999999996     46.685950000000005
C      47.645950000000006     46.657849999999996     46.033349999999999
H      46.844850000000001     49.861649999999997     49.484150000000000
H      47.430950000000003     48.786450000000002     50.866950000000003
H      50.302650000000007     46.617750000000001     49.786850000000001
H      50.809750000000001     47.475650000000002     48.191249999999997
H      50.305950000000003     48.444749999999999     49.348150000000004
H      45.411750000000005     47.518649999999994     48.408850000000001
H      49.605049999999999     46.493650000000002     46.324849999999998
H      45.190249999999999     46.520949999999999     46.631850000000000
H      47.784550000000003     46.138350000000003     45.133049999999997
