39

C      48.289049999999996     47.879449999999991     46.283149999999985
C      50.407849999999996     46.783649999999994     48.695750000000004
C      49.942149999999998     48.073449999999987     49.097849999999994
C      44.316450000000003     46.213850000000001     50.445849999999993
C      49.641149999999996     46.488549999999996     47.442949999999996
C      48.687449999999998     48.452449999999992     49.528649999999999
C      47.587850000000003     46.413750000000000     48.281350000000003
C      45.255849999999995     46.968149999999994     50.023049999999998
C      48.479950000000002     46.736149999999995     47.128249999999994
C      47.538049999999998     47.548150000000000     49.284549999999996
C      51.851950000000002     46.587249999999997     48.882750000000001
C      52.622349999999997     47.502849999999995     49.965450000000004
C      52.428650000000005     48.872949999999996     49.431250000000006
C      51.060350000000000     49.122650000000000     49.323549999999997
C      49.986549999999994     45.491849999999999     45.363749999999996
C      52.350049999999996     45.368849999999995     48.461950000000002
C      49.646649999999994     50.562549999999995     50.386150000000001
C      43.329149999999998     45.519849999999998     50.971649999999997
C      46.218850000000003     47.991549999999997     49.812849999999997
C      48.498449999999991     49.730750000000000     50.180650000000000
H      48.625450000000001     48.934249999999999     46.685350000000000
H      46.086050000000000     49.065049999999992     50.047950000000000
H      48.510649999999998     47.678750000000001     44.940150000000003
H      42.479050000000001     46.029249999999998     51.472949999999997
H      46.456850000000003     46.625249999999994     48.113349999999997
H      53.327249999999992     49.646350000000005     49.716949999999997
H      50.416349999999994     45.186249999999994     44.527050000000003
H      49.175749999999994     46.066649999999996     44.808650000000000
H      51.481049999999996     44.717349999999996     47.990250000000003
H      53.520949999999999     45.183650000000000     48.952249999999992
H      50.268749999999997     50.638849999999998     51.363950000000003
H      43.221949999999993     44.487649999999995     50.663150000000002
H      47.278449999999992     48.445450000000001     46.288849999999996
H      47.503649999999993     44.954349999999998     48.094750000000005
H      49.465249999999997     51.512350000000005     50.395049999999998
H      47.435249999999996     50.297849999999990     50.583449999999999
N      50.240749999999991     45.429949999999998     46.631850000000000
O      50.886749999999992     50.457249999999995     49.343549999999993
O      53.504549999999995     47.109849999999994     50.690849999999998
