12

C      48.042849999999994     48.760499999999993     48.009849999999993
C      47.317850000000000     47.552699999999994     48.024150000000006
C      47.498950000000001     46.754699999999993     46.954250000000002
C      49.213149999999999     47.910099999999993     46.192650000000000
C      49.033050000000003     48.991400000000006     47.035550000000001
H      47.838949999999997     49.523699999999998     48.940449999999998
H      46.880350000000000     46.153500000000001     46.544449999999998
H      50.036050000000003     48.233399999999996     45.573149999999998
H      49.741749999999996     49.846499999999999     47.093850000000003
H      46.795150000000000     47.153299999999994     50.426850000000002
N      48.433449999999993     46.819099999999999     45.917950000000005
S      45.963949999999997     47.425599999999996     49.447149999999993
