20

C      49.205599999999990     47.772849999999991     50.202900000000000
C      49.833999999999996     46.589350000000003     50.417900000000003
C      48.569899999999997     48.803649999999998     49.694600000000008
C      46.000399999999999     49.346449999999997     48.749500000000005
C      48.668599999999998     49.300550000000001     48.286300000000004
C      47.315999999999995     49.451649999999994     47.946000000000005
C      49.797599999999996     48.911450000000002     47.447900000000004
C      47.369699999999995     49.676850000000002     46.528200000000005
C      49.606800000000000     48.753950000000010     46.155000000000008
C      48.354399999999998     49.087650000000004     45.667300000000004
H      49.356299999999997     45.895350000000001     49.656600000000005
H      50.507799999999996     46.235250000000001     51.161099999999998
H      45.413499999999999     50.104649999999999     48.130300000000005
H      47.832699999999996     49.100949999999990     50.644500000000015
H      45.366199999999999     48.305050000000001     48.711700000000008
H      46.251700000000000     49.937649999999998     49.773400000000002
H      50.633800000000001     48.886749999999999     48.066500000000005
H      46.222200000000001     49.730649999999997     46.120300000000007
H      50.434100000000001     48.378549999999997     45.460200000000007
H      48.043099999999995     48.547150000000009     44.838900000000002
