22

C      47.942299999999989     49.863699999999987     47.216149999999992
C      47.088999999999999     50.169999999999995     46.136450000000011
C      48.039699999999996     50.074299999999994     48.744850000000000
C      45.691099999999992     48.364799999999995     49.713050000000010
C      47.969399999999993     48.826799999999992     49.674950000000010
C      47.050999999999988     47.865799999999993     49.964950000000002
C      49.326099999999997     48.349899999999991     49.952449999999999
C      47.441899999999990     46.537599999999998     50.301850000000002
C      49.823799999999991     46.992099999999994     49.907049999999998
C      48.708099999999988     46.040099999999995     50.040750000000003
H      48.548099999999991     48.966099999999997     47.344549999999998
H      47.420999999999992     49.729199999999992     45.197850000000003
H      46.501499999999993     51.122100000000003     45.936250000000001
H      47.435800000000000     50.907799999999995     49.105750000000000
H      49.128699999999995     50.476499999999987     48.766249999999999
H      45.213399999999993     49.040499999999994     50.462550000000007
H      45.632999999999996     48.840899999999991     48.707549999999998
H      50.274799999999985     49.121899999999997     50.203550000000007
H      46.624600000000001     45.820999999999998     50.802149999999997
H      50.960200000000000     46.703899999999990     49.978850000000008
H      48.774799999999985     44.877899999999997     50.188550000000006
H      45.039800000000000     47.464199999999991     49.798250000000010
