18

C      49.683799999999998     46.734799999999993     46.889699999999991
C      48.065700000000000     49.342900000000000     46.205299999999994
C      48.847200000000001     47.474199999999996     47.818000000000005
C      47.952100000000002     48.627799999999993     47.574399999999990
C      48.329700000000003     46.709900000000005     48.881699999999988
C      46.861600000000003     48.989999999999995     48.482399999999991
C      47.560400000000001     46.908699999999996     50.028499999999987
C      46.557100000000005     48.006000000000000     49.565900000000006
H      47.207000000000001     49.101899999999986     45.590100000000000
H      50.612499999999997     47.365300000000005     47.042400000000008
H      48.975600000000000     49.051100000000005     45.677399999999999
H      50.112400000000008     45.797499999999999     47.231000000000002
H      48.118400000000001     50.303500000000000     46.416199999999996
H      49.697099999999999     46.784700000000001     45.533899999999996
H      48.640700000000002     45.696500000000000     48.785100000000007
H      45.965100000000000     49.580399999999997     48.663399999999989
H      47.526600000000002     45.842699999999994     50.466100000000004
H      45.387500000000003     47.976799999999997     49.867700000000006
