5

C      48.165999999999997     48.366749999999996     47.798849999999987
H      48.002700000000004     47.123750000000001     47.562749999999994
H      48.559800000000003     48.313049999999990     48.868450000000010
H      47.230200000000004     48.876249999999999     48.119349999999997
H      48.769799999999996     48.664050000000003     47.131549999999990
