37

C      51.140400000000000     45.333249999999992     49.952099999999994
C      50.123500000000007     48.039849999999994     50.013999999999996
C      51.155799999999999     46.148049999999998     48.717799999999997
C      51.167800000000000     47.542149999999999     48.970300000000002
C      51.755899999999997     45.414349999999992     47.666200000000003
C      51.796100000000010     48.244849999999992     47.919699999999999
C      52.486199999999997     46.202249999999999     46.666399999999996
C      52.506700000000009     47.537550000000003     46.962600000000002
C      43.982700000000008     49.605150000000002     46.466900000000003
C      44.665300000000002     48.056549999999994     46.711399999999998
C      45.087699999999998     49.877649999999996     49.208700000000000
C      45.988399999999999     47.790550000000003     47.353700000000003
C      46.463099999999997     49.696649999999998     49.156800000000004
C      46.745900000000006     48.270949999999999     48.495800000000003
C      47.680199999999999     50.464850000000006     49.524999999999999
C      47.865400000000008     47.573749999999997     48.655799999999999
C      48.856099999999998     49.867950000000000     49.827700000000000
C      48.862000000000009     48.382349999999995     49.392800000000001
H      44.675400000000010     50.356649999999995     46.913899999999998
H      51.629300000000001     44.444650000000003     49.763300000000001
H      50.048900000000003     44.985549999999996     50.336500000000001
H      50.364600000000010     48.766649999999998     50.643699999999995
H      51.846299999999999     44.361950000000000     47.672100000000000
H      51.816699999999997     49.315450000000006     47.772700000000000
H      53.039100000000005     45.679949999999998     45.844999999999999
H      53.007700000000000     48.186550000000004     46.217700000000001
H      43.712400000000002     49.601949999999995     45.356300000000005
H      42.960899999999995     49.281950000000002     46.806800000000003
H      44.591300000000004     47.601350000000004     45.742800000000003
H      44.604200000000006     48.885950000000001     48.943399999999997
H      44.537000000000006     50.741549999999997     49.185699999999997
H      46.461500000000001     46.709150000000001     47.030299999999997
H      47.710500000000010     51.638050000000000     49.819699999999997
H      48.177800000000005     46.522349999999996     48.224899999999998
H      49.699100000000001     50.352349999999994     50.076300000000003
H      51.598100000000002     45.697150000000001     50.629900000000006
H      44.037900000000008     47.178149999999995     47.213099999999997
