5

C      48.149695249999994     48.056399999999996     47.830299999999994
H      48.443595249999987     48.374099999999999     48.845700000000001
H      48.653895249999991     48.796999999999997     47.154299999999999
H      47.198795249999989     47.372900000000001     47.727200000000003
H      48.801204750000011     47.203000000000003     47.574300000000001
