5

C      48.054599999999986     48.064839999999990     47.739484999999995
H      48.677800000000005     47.306159999999998     48.141684999999995
H      48.924800000000005     48.634139999999995     47.395105000000001
H      48.093400000000003     48.693840000000002     48.633285000000001
H      47.075199999999995     47.772039999999997     47.366714999999999
