6

C      48.624150000000000     47.524949999999990     48.162099999999995
C      47.708850000000005     48.476649999999999     48.055799999999991
H      48.992049999999999     47.209350000000001     49.034199999999998
H      48.897750000000009     46.945749999999997     47.162800000000004
H      47.007950000000001     48.764350000000000     48.787299999999988
H      47.623449999999998     49.054250000000003     46.965800000000002
