16

C      46.756459999999990     48.745099999999994     46.634049999999995
C      47.516249999999985     47.416700000000006     46.128349999999998
C      47.535209999999992     48.585300000000004     47.884349999999998
C      48.382549999999995     47.506299999999996     47.341250000000002
C      47.124939999999995     48.278300000000002     49.198149999999998
C      49.218929999999986     46.774100000000004     48.266849999999998
C      48.253799999999998     48.025199999999998     50.116849999999999
C      49.252399999999994     47.213200000000001     49.555550000000011
H      45.701030000000003     48.567200000000000     46.555250000000001
H      47.088309999999993     49.814499999999995     46.022649999999999
H      46.892739999999989     46.645200000000003     46.019050000000000
H      47.432689999999994     47.315399999999997     44.934449999999998
H      46.120369999999994     48.368099999999998     49.811750000000004
H      50.298969999999997     46.185500000000005     48.029249999999998
H      48.224759999999989     48.306100000000001     51.065550000000002
H      50.075579999999988     47.011200000000002     50.143749999999997
