16

C      47.207449999999994     48.044549999999994     50.033349999999992
C      46.236950000000000     49.233750000000001     47.587550000000000
C      47.752649999999996     47.734449999999995     48.970250000000000
C      47.271750000000004     48.272649999999999     47.725050000000003
C      48.828250000000004     46.804550000000006     48.921150000000004
C      47.633150000000008     47.584150000000008     46.457650000000001
C      49.473149999999997     46.749849999999995     47.680050000000001
C      48.848850000000006     47.050049999999999     46.407050000000005
H      47.679650000000002     49.169449999999998     50.666950000000000
H      46.249249999999996     47.761750000000006     50.491050000000001
H      45.695349999999998     49.706550000000007     48.507450000000006
H      46.651649999999997     49.934449999999998     46.823350000000005
H      49.365050000000004     46.527450000000002     49.799650000000000
H      47.091450000000002     47.796650000000000     45.549550000000004
H      50.304650000000002     46.065550000000002     47.501550000000002
H      49.292049999999996     46.727950000000007     45.333050000000000
