18

C      46.794749999999993     50.201799999999992     48.062549999999987
C      48.072650000000003     49.860500000000002     47.999549999999992
C      47.797350000000002     47.533299999999997     46.093949999999992
C      48.635349999999995     48.483599999999996     48.266349999999996
C      48.487150000000007     47.241799999999998     47.234049999999996
C      49.273750000000000     48.230599999999995     49.418349999999997
C      49.250750000000004     45.989799999999995     47.469449999999995
C      49.496350000000000     46.872999999999998     49.778449999999985
C      49.403750000000002     45.857999999999997     48.796049999999987
H      46.033650000000002     49.320099999999996     48.029249999999998
H      46.540550000000003     51.111100000000000     47.516149999999996
H      49.075450000000011     50.539699999999989     47.425349999999995
H      47.318550000000009     46.697299999999998     45.220149999999997
H      47.128250000000001     48.417400000000001     46.110549999999996
H      49.509750000000004     48.888900000000000     50.076349999999984
H      49.171849999999999     45.110799999999998     46.866849999999992
H      49.966349999999998     46.662599999999998     50.779850000000003
H      49.451950000000004     44.888900000000000     49.142649999999996
