6

C      48.712299999999985     47.795549999999999     47.786749999999991
C      47.375499999999995     48.319850000000002     47.621849999999995
H      48.867299999999993     46.845550000000003     47.416349999999994
H      49.303000000000004     48.076750000000004     48.829949999999997
H      46.696999999999996     47.607950000000002     47.170050000000003
H      46.986599999999996     49.154449999999997     48.301349999999999
