6

C      47.308699999999988     48.103849999999994     48.097449999999995
C      48.445599999999992     47.356350000000006     47.848450000000000
H      46.984099999999991     48.895150000000001     47.346249999999998
H      46.866199999999999     47.939350000000005     49.110450000000000
H      49.133800000000001     47.213049999999996     48.656349999999989
H      48.722599999999993     47.104849999999999     46.889550000000000
