16

C      47.699799999999989     46.722549999999991     49.891949999999994
C      47.352500000000006     49.478949999999998     49.312049999999999
C      48.093000000000004     47.084950000000006     48.791550000000001
C      47.233600000000010     48.253150000000005     48.650450000000006
C      48.954700000000003     46.766549999999995     47.921450000000007
C      46.607600000000005     48.384249999999994     47.311149999999998
C      48.444800000000001     46.577449999999999     46.593150000000009
C      47.445900000000009     47.517550000000000     46.351250000000007
H      47.617800000000003     47.506950000000003     50.530349999999999
H      47.431200000000004     45.596249999999998     49.934650000000005
H      46.667299999999997     50.403750000000002     49.094149999999999
H      48.159599999999998     50.031049999999993     49.879950000000008
H      49.997399999999999     46.598749999999995     48.224150000000009
H      46.002600000000001     49.220249999999993     47.032150000000001
H      48.756900000000002     45.839050000000000     45.873550000000009
H      46.790400000000005     47.717150000000004     45.469650000000001
