40

C      45.629999999999995     48.503399999999992     48.362349999999992
C      45.449300000000001     49.475000000000001     47.327349999999996
C      49.297100000000000     46.031900000000000     45.982150000000004
C      49.412200000000006     47.033000000000001     44.884950000000003
C      46.566200000000002     47.416699999999999     48.223250000000007
C      46.434400000000004     49.321300000000008     46.306550000000001
C      48.289200000000001     46.048700000000004     46.994650000000007
C      48.226600000000012     47.979100000000003     45.019250000000000
C      47.497200000000014     47.233899999999998     47.068449999999999
C      47.414300000000004     48.300500000000000     46.193849999999998
C      45.506100000000004     49.077900000000000     49.656350000000003
C      45.005700000000004     50.259299999999996     49.910150000000002
C      44.870100000000001     51.172899999999998     48.826950000000011
C      45.060500000000005     50.837299999999999     47.448650000000001
C      50.026299999999999     44.852699999999999     45.825450000000004
C      51.177000000000000     44.893799999999999     44.991349999999997
C      51.372999999999998     45.961500000000001     44.179249999999996
C      50.402300000000004     47.047800000000002     44.011949999999999
C      46.033900000000003     48.164900000000003     50.758949999999999
C      45.431200000000004     48.565500000000000     52.059049999999999
C      44.698100000000004     49.689800000000005     52.141750000000016
C      44.670500000000004     50.935700000000011     51.210049999999995
C      47.323600000000006     46.868299999999998     49.312950000000001
C      47.008299999999998     47.181899999999999     50.634850000000000
H      47.901100000000007     48.784400000000005     44.454250000000002
H      44.585600000000007     52.113900000000001     49.219650000000001
H      45.228900000000003     51.563700000000011     46.638050000000007
H      49.751000000000012     43.886099999999999     46.242850000000004
H      51.980400000000010     44.134599999999999     45.056250000000006
H      52.213799999999999     46.066800000000001     43.379950000000008
H      44.974700000000006     48.043599999999998     52.961349999999996
H      48.256900000000002     46.265599999999999     49.590450000000004
H      47.482500000000002     46.821800000000003     51.547449999999998
H      45.270900000000005     50.450599999999994     45.218649999999997
H      48.181999999999995     45.371200000000002     47.826850000000007
H      44.121900000000004     49.559200000000004     53.209050000000005
H      51.443500000000007     48.212499999999999     42.790949999999995
O      43.786200000000001     51.756399999999999     50.972149999999999
O      50.547300000000000     47.935900000000004     42.992450000000005
O      46.154900000000005     49.986899999999991     45.171450000000007
