6

C      47.980899999999998     47.735649999999993     48.530899999999995
C      48.114199999999997     48.345849999999992     47.316400000000002
H      47.320200000000000     47.806050000000006     49.321600000000004
H      48.843199999999996     47.187350000000002     49.083700000000000
H      47.028999999999996     48.812649999999998     46.974800000000002
H      48.971000000000004     47.879349999999995     46.678399999999996
