5

C      48.110799999999998     48.264499999999991     47.893999999999991
H      47.931600000000003     48.694400000000002     48.786200000000001
H      48.952600000000004     48.704400000000000     47.547499999999992
H      47.047399999999996     48.047300000000000     47.213799999999999
H      48.367999999999995     47.295600000000000     48.424900000000001
