5

C      48.008749999999992     47.909484999999997     47.725949999999997
H      47.930749999999996     48.916615000000000     47.262149999999998
H      48.043950000000002     48.043644999999998     48.737850000000002
H      47.126550000000002     47.235275000000001     47.394250000000000
H      48.873449999999998     47.083385000000000     47.859549999999992
