6

C      48.040249999999986     48.668299999999988     48.089189999999988
C      48.282050000000012     47.530600000000000     47.648769999999999
H      47.475149999999999     49.304899999999996     47.387979999999999
H      48.524850000000001     48.843899999999998     49.087900000000005
H      47.632450000000006     47.021999999999998     46.912099999999995
H      47.910550000000001     46.695100000000004     48.512000000000000
