22

C      50.227570000000000     47.399849999999986     49.424250000000001
C      47.870469999999997     50.236469999999997     48.113849999999999
C      49.512270000000001     47.672149999999995     48.266549999999995
C      48.022170000000003     49.197310000000009     46.683549999999997
C      48.584670000000003     46.738949999999996     47.680450000000008
C      47.756770000000003     47.738849999999992     46.918450000000007
C      48.170470000000009     45.570249999999994     48.586449999999999
C      46.407030000000006     47.324149999999996     46.655650000000009
C      46.917590000000004     45.287549999999989     48.099550000000008
C      46.038910000000001     45.916949999999993     47.018450000000001
H      46.962320000000005     49.616500000000009     48.089950000000002
H      49.907769999999999     46.446949999999994     50.011349999999993
H      50.892969999999991     48.182487000000002     49.792150000000007
H      48.540670000000006     50.233040000000003     48.770150000000001
H      47.701369999999997     51.486250000000005     48.566850000000002
H      49.835470000000001     48.727744999999992     47.823350000000005
H      48.912770000000009     49.060189999999999     46.200350000000000
H      47.277659999999997     49.725909999999999     45.988650000000007
H      48.446070000000006     44.624149999999993     49.111350000000002
H      45.662040000000005     47.934129999999989     46.405749999999998
H      46.300629999999998     44.513749999999995     48.670249999999996
H      45.107030000000009     45.444949999999999     47.331649999999996
