6

C      48.500534999999999     47.670314999999995     48.099549999999994
C      47.523124999999993     48.580614999999995     47.883649999999996
H      49.378974999999997     47.691314999999996     48.806149999999995
H      48.736914999999996     46.731684999999999     47.522150000000003
H      46.621025000000003     48.317314999999994     47.193850000000005
H      47.293854999999994     49.268315000000001     48.585249999999995
