20

C      48.007399999999997     49.692199999999993     49.748349999999988
C      47.153599999999997     50.704999999999998     50.156750000000002
C      48.350999999999999     49.210799999999999     48.354650000000007
C      46.927999999999997     46.978899999999996     49.755750000000006
C      48.223100000000002     47.888999999999996     47.885850000000005
C      47.618099999999998     46.824700000000000     48.787750000000003
C      48.777000000000001     47.546499999999995     46.623450000000005
C      47.965299999999999     45.473799999999997     48.399450000000002
C      48.910699999999991     46.245100000000001     46.146450000000002
C      48.566499999999991     45.330399999999997     47.133150000000001
H      48.421399999999991     49.027699999999996     50.526150000000001
H      46.448099999999997     48.203299999999999     49.834250000000011
H      46.982199999999992     50.584599999999995     51.177250000000001
H      46.501899999999992     46.425699999999999     50.563950000000006
H      48.694000000000003     49.889099999999999     47.712850000000003
H      46.786000000000001     51.589700000000001     49.478150000000014
H      49.524299999999997     48.394999999999996     46.140850000000000
H      48.300600000000003     44.410299999999999     48.823450000000008
H      49.551900000000003     45.971599999999995     44.822749999999999
H      48.847399999999993     44.428500000000000     46.555850000000007
