61

C      50.805699999999987     51.276149999999994     53.719949999999997
C      50.329299999999996     51.162049999999994     52.603050000000003
C      49.649800000000006     50.933949999999996     51.252450000000003
C      49.313499999999998     47.685749999999999     46.177749999999996
C      48.184699999999999     47.266249999999999     45.217649999999999
C      50.339700000000001     48.420450000000002     45.505549999999992
C      48.517699999999998     47.442549999999997     43.766349999999996
C      51.876899999999999     48.861949999999993     43.472850000000001
C      50.562800000000003     48.632649999999998     44.031550000000003
C      49.420899999999996     48.321649999999991     43.124249999999996
C      49.088400000000000     47.896050000000002     47.657249999999998
C      47.878899999999994     47.296650000000000     48.131449999999994
C      46.929099999999998     46.536349999999999     47.109850000000002
C      47.082699999999996     46.649450000000002     45.761450000000004
C      50.000499999999995     48.689549999999997     48.443450000000006
C      49.844199999999994     48.627849999999995     49.943850000000005
C      48.668299999999995     47.950350000000000     50.358849999999997
C      47.658200000000001     47.364249999999998     49.495950000000001
C      50.972199999999994     49.152749999999997     47.863549999999996
C      51.264400000000002     49.079049999999995     46.406550000000003
C      45.799399999999999     46.135949999999994     47.804150000000000
C      45.015499999999996     45.165849999999992     47.090849999999996
C      44.869300000000003     45.478149999999999     45.686749999999996
C      45.945799999999998     46.018550000000005     44.998849999999997
C      47.726000000000006     46.285249999999991     43.151050000000005
C      46.181099999999994     46.145150000000001     43.488949999999996
C      52.344000000000001     49.510149999999996     45.562949999999994
C      52.644500000000001     49.461950000000002     44.229949999999995
C      47.091500000000003     46.064750000000004     49.906249999999993
C      46.042300000000004     45.592050000000000     49.227049999999998
C      48.405700000000003     47.947450000000003     51.826649999999994
C      49.661300000000004     45.883650000000003     52.082150000000006
C      49.627000000000002     47.413950000000000     52.508649999999996
C      43.536499999999997     44.949150000000003     45.017949999999992
C      50.420200000000001     49.774649999999994     50.533350000000006
H      51.091799999999999     52.178849999999997     54.068549999999995
H      48.486499999999999     50.641149999999996     51.226750000000003
H      49.786800000000007     51.874650000000003     50.583750000000002
H      49.911899999999996     48.422550000000001     42.229750000000003
H      44.203799999999994     44.852750000000000     47.616750000000003
H      47.778900000000000     46.441050000000004     41.931450000000005
H      48.281100000000002     45.497450000000001     43.350050000000003
H      45.789700000000003     46.984150000000000     43.036049999999996
H      45.864399999999996     45.415849999999992     42.855950000000000
H      53.235599999999998     50.181650000000005     43.742749999999994
H      53.329100000000004     49.878850000000000     45.980650000000004
H      52.128599999999999     48.716650000000001     42.482049999999994
H      47.227600000000002     45.754350000000002     50.870650000000005
H      50.756200000000000     45.216049999999996     52.031749999999995
H      45.307600000000001     44.950949999999992     49.580549999999995
H      49.127699999999997     45.345950000000002     52.989849999999997
H      49.261100000000006     45.391849999999991     51.130950000000006
H      52.673600000000000     50.008849999999995     48.108449999999998
H      49.503700000000002     47.448449999999994     53.707450000000001
H      50.510799999999996     47.986949999999993     52.249950000000005
H      43.841199999999994     43.821150000000003     45.128350000000005
H      42.670899999999996     45.267449999999997     45.569150000000000
H      43.675199999999997     45.229450000000000     44.101049999999994
H      51.341299999999997     50.294049999999999     50.827949999999994
O      47.329400000000000     47.919550000000001     52.333850000000005
O      51.901800000000001     49.887249999999995     48.670349999999992
