5

C      48.110499999999988     48.081804999999996     48.332549999999998
H      48.560000000000002     48.974694999999997     48.732550000000003
H      48.371300000000005     48.239874999999998     47.267449999999997
H      47.292599999999993     47.335254999999997     48.121549999999999
H      48.707400000000007     47.025305000000003     48.688749999999999
