32

C      47.280991999999998     48.615449999999996     47.938259999999993
C      46.642051999999993     48.609650000000009     49.297860000000000
C      50.316981999999996     45.180050000000001     49.564459999999997
C      49.134371999999999     44.801850000000009     50.320859999999996
C      48.557602000000003     47.948250000000009     47.882959999999997
C      47.105642000000003     47.736750000000008     50.263459999999995
C      50.294402000000005     46.359050000000003     48.744460000000004
C      48.949461999999997     47.078850000000010     48.862359999999995
C      48.061532000000000     46.645850000000003     49.958459999999988
C      47.054491999999996     49.570950000000003     46.900219999999997
C      46.153412000000003     50.617750000000008     47.371859999999998
C      45.705001999999993     50.638250000000006     48.790959999999998
C      46.011532000000003     49.841950000000004     49.854259999999996
C      49.666671999999991     48.508050000000004     46.793610000000001
C      48.924322000000004     48.350850000000001     45.471869999999996
C      47.666111999999998     49.328550000000000     45.530400000000000
H      49.160122000000001     43.911549999999998     50.986760000000004
H      46.653142000000003     47.984550000000006     51.378460000000004
H      51.222752000000000     46.767550000000007     48.225359999999995
H      46.097031999999999     51.230350000000008     46.516979999999997
H      46.284511999999992     50.143450000000009     50.885659999999987
H      49.917571999999993     49.521450000000009     47.155059999999999
H      50.719442000000001     48.153650000000006     46.543489999999998
H      48.627101999999994     47.052950000000003     45.067669999999993
H      49.320651999999995     49.020450000000004     44.621539999999996
H      47.847902000000005     50.444350000000007     45.100629999999995
H      46.984951999999993     49.106650000000009     44.759129999999999
H      44.341778000000005     52.088450000000002     48.711559999999992
H      51.658221999999995     44.491549999999997     48.480759999999997
N      48.096751999999995     45.531650000000006     50.609459999999999
O      44.986722000000000     51.752350000000000     49.170359999999995
O      51.225901999999991     44.153250000000007     49.341560000000001
