18

C      49.500199999999992     48.349099999999993     49.608049999999992
C      49.920199999999994     47.655599999999993     46.315249999999999
C      48.490799999999993     47.996399999999994     48.498049999999999
C      48.701899999999995     48.188699999999997     47.170150000000000
C      47.112399999999994     48.173599999999993     48.941449999999996
C      47.477999999999994     48.456099999999992     46.414949999999997
C      45.839399999999998     48.330399999999997     48.224350000000001
C      46.087299999999999     48.418499999999995     46.843049999999998
H      49.307999999999993     49.339799999999997     50.088949999999997
H      50.120499999999993     46.660200000000003     46.620049999999999
H      49.431399999999996     47.706999999999994     50.658250000000002
H      50.538600000000002     48.301299999999998     49.180450000000000
H      49.751999999999995     47.847999999999999     45.341749999999998
H      50.752399999999994     48.360199999999992     46.639949999999999
H      46.903700000000001     48.650999999999996     49.904049999999998
H      47.383499999999998     48.334299999999999     45.361249999999998
H      45.247600000000006     48.610299999999995     48.965849999999996
H      45.321100000000001     48.463299999999990     46.086149999999996
