6

C      48.290499999999994     48.697669999999988     48.100849999999994
C      47.559699999999992     47.664349999999999     47.576549999999997
H      47.931100000000001     49.070410000000003     49.052449999999993
H      49.494299999999996     48.602899999999998     48.012050000000002
H      46.505700000000004     47.541440000000001     47.797849999999997
H      48.019400000000005     46.929589999999997     46.947550000000007
