20

C      45.702999999999989     48.136649999999996     45.330399999999997
C      46.481300000000005     47.680650000000000     46.220500000000001
C      50.167500000000004     47.698550000000004     48.370899999999992
C      47.367000000000004     47.132950000000001     47.114699999999999
C      48.775500000000008     47.362050000000004     48.968499999999992
C      47.439300000000003     47.268850000000000     48.477599999999995
C      48.762200000000007     48.223450000000000     50.141800000000003
C      46.162700000000015     47.241450000000000     49.241500000000002
C      47.539100000000005     48.545950000000005     50.795099999999991
C      46.200600000000009     48.068150000000003     50.254899999999992
H      45.999899999999997     49.216750000000005     44.958500000000001
H      45.293000000000006     47.409450000000007     44.547200000000004
H      50.437100000000001     48.468149999999994     47.632999999999996
H      50.730000000000004     48.016649999999998     49.190600000000003
H      50.212500000000006     46.603350000000006     47.987099999999998
H      48.331800000000015     47.357150000000004     46.702600000000004
H      49.134799999999998     49.222049999999996     50.053399999999996
H      45.282899999999998     47.178350000000002     48.784899999999993
H      47.656100000000009     49.396649999999994     51.452799999999996
H      45.269999999999996     48.302250000000001     50.788100000000000
