15

C      45.667699999999996     47.755049999999997     48.770249999999990
C      47.839999999999996     48.664150000000006     50.177250000000001
C      46.712100000000000     47.861350000000002     48.130549999999999
C      48.024899999999995     48.133350000000007     48.859449999999995
C      46.496299999999998     48.369850000000000     46.792450000000002
C      49.311699999999995     48.231049999999996     48.165250000000000
C      47.742500000000000     48.569950000000006     46.224549999999994
C      49.064500000000002     48.492850000000004     46.789550000000006
H      45.703700000000005     47.112849999999995     49.708550000000002
H      48.800199999999997     48.783749999999998     50.717650000000006
H      46.856500000000004     48.483350000000002     50.667450000000002
H      45.611600000000003     48.391750000000002     46.262349999999998
H      50.388399999999997     48.526049999999998     48.758849999999995
H      47.522600000000004     48.887150000000005     45.282349999999994
H      50.044500000000006     48.860849999999999     46.151349999999994
