23

C      45.390749999999997     45.617399999999996     49.012099999999990
C      47.697449999999989     48.676699999999997     46.376300000000001
C      47.425849999999997     47.593600000000009     47.276600000000002
C      48.380849999999995     47.249499999999998     48.210499999999996
C      49.634349999999998     47.910300000000007     48.208500000000001
C      49.564250000000001     49.194199999999995     47.714300000000009
C      48.947649999999996     49.365900000000011     46.457900000000009
C      47.931049999999999     46.094900000000010     49.079099999999997
C      46.519050000000007     46.338200000000001     49.532899999999998
C      50.913849999999996     47.392700000000005     49.047399999999996
H      44.505949999999999     45.130099999999999     49.712100000000007
H      44.811450000000008     46.591900000000010     48.419800000000009
H      45.605750000000000     45.269199999999998     47.865700000000004
H      47.203450000000004     48.590400000000002     45.510100000000008
H      46.596750000000000     46.939400000000006     47.313600000000008
H      50.506950000000003     49.847600000000000     47.642400000000009
H      46.648349999999994     46.121700000000004     50.642200000000003
H      46.126750000000001     47.371700000000004     49.447699999999998
H      51.399450000000002     48.413499999999999     49.247900000000001
H      49.804249999999996     50.879700000000000     45.740899999999996
O      48.544950000000000     45.120300000000000     49.476399999999998
O      51.494050000000001     46.341700000000003     49.203100000000006
O      49.196349999999995     50.293100000000010     45.357799999999997
