6

C      48.227849999999989     47.867349999999988     48.750649999999993
C      47.758650000000003     48.164449999999995     47.498950000000001
H      48.416150000000002     48.678449999999991     49.374249999999996
H      48.764049999999997     46.767649999999996     49.188150000000000
H      47.989350000000002     49.232350000000004     47.248449999999998
H      47.235950000000003     47.668149999999997     46.625750000000004
