32

C      47.820340999999992     47.046649999999993     46.930229999999995
C      47.457811000000000     49.834350000000001     45.300730000000001
C      46.856231000000001     47.374750000000006     45.880709999999993
C      46.745421000000000     48.493850000000009     45.100650000000002
C      45.608671000000001     46.475250000000003     46.156710000000004
C      45.505141000000002     48.637850000000000     44.424350000000004
C      44.388160999999997     46.741450000000000     45.587729999999993
C      44.433681000000000     47.716250000000002     44.599580000000003
C      51.583100999999999     47.438850000000002     47.672539999999998
C      48.880420999999998     47.727350000000001     47.608799999999988
C      50.888570999999999     46.746250000000003     48.918740000000000
C      49.432211000000009     46.824550000000002     48.681539999999998
C      51.363000999999997     46.175449999999998     50.062839999999994
C      48.738221000000010     46.129649999999998     49.791439999999994
C      50.639851000000007     45.821349999999995     51.339140000000000
C      49.305240999999995     45.777250000000009     51.090140000000005
H      47.769070999999997     45.976550000000003     46.851069999999993
H      47.117981000000000     50.537549999999996     45.960669999999993
H      48.383921000000001     49.258849999999995     45.908909999999992
H      47.806701000000004     50.105150000000009     44.214150000000004
H      45.416030999999997     45.588250000000002     46.851460000000003
H      45.477071000000002     49.583050000000000     43.689160000000001
H      43.902040999999997     45.800950000000000     45.560609999999997
H      43.441969000000000     47.953550000000007     44.180819999999997
H      52.558031000000000     47.958750000000009     47.842140000000001
H      50.975360999999999     48.123249999999999     47.582399999999993
H      51.431091000000002     46.474950000000007     47.026969999999992
H      48.813451000000001     48.767150000000001     47.481740000000002
H      52.450491000000000     46.038750000000007     49.700239999999994
H      47.585171000000003     46.101150000000004     49.595339999999993
H      50.954571000000001     45.861850000000004     52.310839999999999
H      48.745141000000004     45.462450000000004     52.012839999999997
