16

C      46.870449999999991     48.107449999999993     46.213899999999995
C      46.091349999999998     48.803650000000005     48.998800000000003
C      47.802149999999997     47.936849999999993     47.203700000000005
C      47.374850000000002     48.442549999999997     48.572499999999998
C      49.027549999999998     47.324749999999995     47.078899999999997
C      48.125449999999994     48.391750000000002     49.782800000000002
C      49.857749999999989     47.423149999999993     48.239800000000002
C      49.454850000000000     48.097049999999996     49.533099999999997
H      45.860049999999994     48.402850000000001     46.483899999999998
H      47.117849999999997     47.810050000000004     45.296900000000001
H      45.229549999999996     48.400750000000002     48.501399999999997
H      46.102150000000002     49.097449999999995     50.141900000000000
H      49.546050000000001     46.902550000000005     46.130200000000002
H      47.628349999999990     48.851950000000002     50.703099999999999
H      50.770450000000004     47.595050000000001     47.568300000000001
H      50.074549999999995     48.344449999999995     50.337600000000002
