6

C      48.426049999999996     48.386609999999990     47.840899999999991
C      47.270250000000004     47.634169999999997     47.723099999999995
H      47.994750000000003     49.445839999999997     47.934699999999999
H      49.399850000000001     48.000470000000000     48.060499999999998
H      47.102150000000002     46.554160000000003     47.913500000000006
H      46.600149999999999     48.263249999999999     48.276900000000005
