6

C      48.616999999999997     47.909749999999988     47.793149999999990
C      47.587699999999998     48.444850000000002     48.360050000000001
H      49.304000000000002     47.170249999999996     48.550250000000005
H      48.887600000000006     47.818849999999998     46.597250000000003
H      47.699400000000004     48.121750000000006     49.402749999999997
H      46.695999999999998     48.829750000000004     47.744850000000000
