62

C      46.015799999999999     49.546399999999991     51.948744999999995
C      45.688599999999994     48.091700000000003     51.778644999999997
C      51.154799999999994     48.211200000000005     43.810845000000000
C      46.674499999999995     49.976900000000001     50.852345000000000
C      50.795000000000002     46.722600000000000     43.694625000000002
C      51.056699999999992     48.873100000000008     44.969555000000000
C      45.941000000000003     47.372600000000006     50.709244999999996
C      50.345900000000000     44.657499999999999     45.172165000000000
C      49.829599999999999     44.087199999999996     46.299814999999995
C      47.973799999999997     44.479600000000005     48.061444999999999
C      46.994599999999991     45.238799999999998     48.818345000000001
C      48.306500000000000     49.598300000000009     48.879244999999997
C      49.320599999999999     49.106099999999998     46.836775000000003
C      50.105099999999993     46.028499999999994     44.805194999999998
C      48.781800000000004     44.910200000000003     46.973444999999998
C      47.264499999999998     49.247000000000000     49.798144999999998
C      50.041499999999999     48.369299999999996     45.840775000000001
C      48.647899999999993     48.549700000000001     47.953744999999998
C      46.980999999999995     47.774600000000007     49.810144999999999
C      47.299599999999998     46.674400000000006     48.962644999999995
C      49.579699999999988     46.887600000000006     45.800975000000001
C      48.138599999999997     47.169899999999998     47.841144999999997
C      48.739899999999992     46.347999999999999     46.849775000000001
C      45.740200000000002     50.315100000000001     53.146045000000001
C      45.280199999999994     49.621400000000008     54.231345000000005
C      44.696200000000005     48.358699999999999     54.086945000000000
C      44.681600000000003     47.703199999999995     52.838645000000000
C      51.508099999999999     48.130400000000009     41.420864999999999
C      51.260999999999996     46.665099999999995     41.323954999999998
C      50.852099999999993     46.009900000000002     42.469454999999996
C      50.504199999999997     44.445800000000006     42.559784999999998
C      50.648399999999995     43.794100000000000     43.922285000000002
C      46.774500000000003     51.556899999999999     50.726145000000002
C      46.973500000000001     52.351500000000001     51.964945000000000
C      46.485399999999998     51.688200000000009     53.154844999999995
C      49.045800000000000     44.192200000000000     42.488064999999999
C      46.591600000000000     52.190300000000008     54.496844999999993
H      51.449900000000000     49.881299999999996     44.933554999999998
H      45.485199999999992     46.419600000000003     50.732145000000003
H      49.754000000000005     43.030500000000004     46.551085000000000
H      48.231999999999999     43.549499999999995     48.787745000000001
H      46.377799999999993     44.630200000000002     49.653644999999997
H      49.058800000000005     50.421599999999998     49.001044999999998
H      49.123300000000000     50.153500000000008     46.820394999999998
H      44.313400000000001     47.897400000000005     55.092645000000005
H      44.300799999999995     46.631500000000003     53.011944999999997
H      51.133099999999999     48.804299999999998     40.703764999999997
H      51.239199999999997     46.185999999999993     40.325654999999998
H      50.945700000000002     44.176199999999994     41.643045000000001
H      50.158400000000000     42.635499999999993     43.828474999999997
H      51.699200000000005     43.477099999999993     44.295845000000000
H      45.885700000000000     52.202200000000005     50.475144999999998
H      47.391800000000003     52.017400000000009     49.928444999999996
H      46.934500000000000     53.364500000000007     52.078944999999997
H      48.061899999999994     43.626099999999994     42.703045000000003
H      48.568399999999997     44.598799999999997     41.595794999999995
H      49.002499999999998     45.298500000000004     43.034125000000003
H      47.099499999999992     53.202700000000007     54.753844999999998
H      46.772800000000004     51.372000000000000     55.281144999999995
H      45.051400000000001     50.902000000000001     55.674345000000002
N      51.529700000000005     48.751300000000001     42.658074999999997
O      45.360500000000002     50.033000000000001     55.579245000000000
