6

C      48.046999999999997     47.467558499999988     48.449949999999987
C      48.249700000000011     48.526799499999996     47.549350000000004
H      48.210400000000000     47.450129499999996     49.512150000000005
H      47.524999999999999     46.566610499999996     48.275350000000003
H      48.475000000000001     49.433389500000004     48.027249999999995
H      48.379300000000008     48.284579500000007     46.487849999999995
