19

C      47.730249999999991     46.075099999999992     50.138349999999988
C      46.941249999999997     46.788499999999999     49.536949999999997
C      49.031449999999992     48.942799999999998     49.338149999999992
C      47.095349999999996     47.381599999999999     48.331249999999997
C      48.088549999999998     48.415500000000002     48.187049999999992
C      46.739449999999998     46.848300000000002     47.124749999999999
C      48.346850000000003     49.076299999999996     46.963449999999995
C      46.849149999999995     47.735300000000002     45.919750000000001
C      47.667649999999995     48.927200000000006     45.779649999999997
H      48.760549999999995     46.034399999999998     49.722249999999995
H      47.848550000000003     46.371600000000008     51.170150000000000
H      45.895550000000000     47.196199999999997     50.171649999999993
H      48.514849999999996     48.554300000000005     50.316749999999992
H      50.104450000000000     48.935700000000004     49.102149999999995
H      48.828350000000000     50.069499999999998     49.306149999999995
H      46.006850000000000     45.930500000000002     46.975649999999995
H      49.288950000000000     49.773199999999996     47.116149999999998
H      46.138249999999999     47.273699999999998     44.965150000000001
H      47.636350000000000     49.820500000000003     44.829850000000000
