17

C      49.044749999999993     48.304289999999988     49.855139999999992
C      50.262850000000000     47.295490000000001     47.396870000000000
C      48.420949999999998     48.581389999999999     48.711810000000000
C      48.879650000000005     47.940790000000000     47.462610000000005
C      46.937049999999999     49.010390000000001     48.856259999999999
C      48.177150000000005     48.309989999999999     46.318009000000004
C      46.228149999999999     48.721989999999991     47.772330000000004
C      46.770750000000000     48.470389999999995     46.569853999999999
H      50.829149999999998     48.165489999999998     47.553960000000004
H      48.524250000000002     48.499290000000002     50.694340000000004
H      50.013649999999998     48.136690000000002     49.849160000000005
H      50.326649999999994     46.958340000000000     46.440647000000006
H      50.416850000000004     46.508009999999999     48.091170000000005
H      46.481150000000000     49.491990000000001     49.740830000000003
H      48.568950000000001     47.939889999999998     45.305659999999996
H      45.170850000000002     48.910489999999996     47.599800000000002
H      46.173449999999995     48.414189999999998     45.660160000000019
