6

C      47.810149999999986     48.062699999999992     47.400949999999987
C      48.100049999999996     47.554899999999996     48.729950000000002
H      46.914349999999999     47.884899999999995     46.812749999999994
H      48.471049999999991     48.814399999999999     47.000249999999994
H      49.085650000000001     47.758999999999993     49.187250000000006
H      47.105949999999993     47.185600000000001     48.914049999999989
