6

C      48.559049999999985     47.792949999999990     48.225249999999988
C      47.258949999999999     48.310749999999992     48.219549999999998
H      49.493449999999996     47.683450000000001     47.550049999999999
H      48.288650000000004     46.703449999999997     48.438649999999996
H      46.506550000000004     47.608649999999997     48.449950000000001
H      47.223950000000002     49.296550000000003     47.692049999999995
