6

C      48.078400000000002     48.381449999999994     47.529049999999991
C      48.016900000000007     47.506949999999996     48.503049999999995
H      47.119100000000003     49.112749999999998     47.457249999999995
H      48.968599999999995     48.963549999999998     47.049650000000000
H      48.940600000000003     46.887250000000002     48.550049999999999
H      47.031400000000005     47.033049999999996     48.950350000000000
