22

C      49.195949999999996     46.363299999999995     50.492199999999997
C      47.875350000000005     45.804100000000005     50.007899999999999
C      46.939050000000002     49.782400000000010     48.782000000000004
C      47.023750000000000     46.503399999999999     49.119999999999997
C      46.756550000000004     48.559700000000007     47.864100000000001
C      47.534950000000002     47.358200000000011     48.049900000000001
C      46.977049999999998     48.958100000000002     46.507500000000000
C      48.582850000000001     46.775200000000012     47.403500000000001
C      48.268850000000008     48.668599999999998     45.945399999999999
C      49.045850000000002     47.593100000000007     46.361899999999999
H      49.702550000000002     46.483400000000003     49.508699999999997
H      49.789650000000002     45.501400000000004     51.015700000000002
H      49.163650000000004     47.582800000000006     50.990400000000001
H      47.565249999999999     45.250399999999999     51.028900000000000
H      46.171650000000007     50.605500000000006     48.922599999999996
H      47.749250000000004     50.749600000000001     48.367600000000003
H      46.009149999999998     46.441100000000006     49.259999999999998
H      47.470550000000003     49.380900000000011     49.593700000000005
H      46.524850000000008     49.871500000000012     46.057399999999994
H      49.073450000000001     45.751000000000005     47.579000000000001
H      48.373250000000006     48.886500000000012     44.971100000000000
H      49.990850000000002     47.338300000000004     45.719299999999997
