5

C      48.100249999999988     48.290399999999998     47.891499999999994
H      48.874450000000003     47.244399999999999     48.050799999999995
H      47.125549999999997     47.656700000000001     47.953099999999992
H      47.936249999999994     48.755600000000001     46.881000000000000
H      47.824149999999996     48.397099999999995     49.119000000000000
