6

C      48.022194999999996     48.657449999999990     48.342299999999994
C      47.713624999999993     47.426850000000002     47.740700000000011
H      47.671075000000002     49.519750000000002     47.645700000000012
H      48.608765000000005     48.654449999999997     49.222799999999999
H      47.831024999999997     46.480249999999998     48.178600000000010
H      47.391234999999995     47.719149999999999     46.777200000000001
