6

C      48.572949999999985     48.249199999999995     48.077149999999989
C      47.402949999999990     47.554400000000001     47.906050000000000
H      48.603349999999992     49.338600000000000     47.808650000000000
H      49.514949999999999     47.885899999999992     48.354549999999996
H      47.466749999999990     46.661400000000000     48.512050000000002
H      46.485050000000001     47.386299999999991     47.487949999999998
