16

C      46.962899999999991     47.965999999999994     49.827699999999993
C      47.094900000000003     49.956899999999997     47.928300000000007
C      47.503999999999998     47.648100000000007     48.771600000000007
C      47.732700000000001     48.861800000000009     47.610200000000006
C      48.116999999999997     46.361600000000003     48.571600000000004
C      48.594199999999994     48.178500000000007     46.592299999999994
C      48.883000000000003     45.917800000000007     47.364900000000006
C      48.925699999999999     46.908600000000000     46.267700000000005
H      47.474399999999996     47.270699999999998     50.697900000000004
H      46.485799999999998     48.947800000000008     50.093400000000003
H      46.723199999999999     49.916600000000010     48.896500000000003
H      47.016700000000007     51.025900000000000     47.623699999999999
H      48.124199999999995     45.555299999999995     49.554100000000005
H      48.795000000000002     48.668399999999998     45.498599999999996
H      49.484800000000000     44.974100000000000     47.186199999999999
H      49.514200000000002     46.676600000000001     45.302099999999996
