5

C      47.604349999999997     48.113899999999994     48.110699999999994
H      47.402050000000003     48.698700000000002     49.124299999999998
H      47.052050000000001     47.995000000000005     47.354599999999998
H      48.947949999999999     47.301299999999998     46.875700000000002
N      48.743850000000002     47.727800000000002     47.837899999999998
