22

C      47.394649999999992     45.659799999999990     47.025299999999994
C      48.823650000000001     45.936099999999989     46.781299999999995
C      46.701049999999995     46.902800000000006     47.493499999999997
C      49.402850000000001     46.344100000000005     48.168299999999988
C      47.322849999999988     48.109699999999997     48.334299999999999
C      48.630150000000000     47.649299999999990     48.540500000000009
C      46.824549999999988     49.324099999999994     48.927199999999999
C      49.422550000000001     48.459899999999998     49.434500000000000
C      47.639849999999996     50.208199999999998     49.661299999999997
C      49.015549999999990     49.705599999999997     49.778300000000002
H      47.308949999999996     44.983799999999995     47.748100000000008
H      47.080649999999991     45.495500000000000     45.978600000000000
H      48.869349999999997     46.658299999999997     45.732700000000001
H      49.371549999999999     44.941800000000001     46.382700000000000
H      45.629249999999999     46.552200000000006     47.971400000000003
H      46.068149999999989     47.217400000000005     46.752499999999998
H      50.369949999999989     46.722900000000003     47.994000000000000
H      49.256149999999991     45.614899999999999     49.233099999999993
H      45.759349999999998     49.312599999999996     48.742599999999996
H      50.370750000000001     48.180000000000000     49.693899999999999
H      47.297550000000001     51.058199999999999     50.267299999999999
H      49.826650000000001     50.257200000000005     50.244000000000000
