34

C      50.118849999999995     49.339449999999999     46.784849999999985
C      47.722649999999994     46.923550000000006     47.183049999999994
C      50.011450000000004     47.963750000000005     46.130650000000003
C      48.924150000000004     47.214749999999995     46.304549999999992
C      50.974150000000002     47.792249999999996     45.080749999999995
C      48.931450000000005     46.014849999999996     45.535950000000000
C      50.955949999999994     46.505949999999999     44.364549999999994
C      49.791750000000000     45.583349999999996     44.496949999999998
C      45.064450000000001     47.382850000000005     49.428849999999997
C      46.951550000000005     48.389750000000006     47.114949999999993
C      46.229750000000003     48.501350000000002     49.506850000000000
C      46.933349999999997     49.034949999999995     48.463949999999997
C      46.810549999999999     48.563450000000003     50.806150000000002
C      47.590049999999998     50.351950000000002     48.735450000000000
C      47.412550000000003     49.819050000000004     51.237549999999999
C      47.973949999999995     50.476550000000003     50.091149999999999
H      44.680249999999994     47.116550000000004     48.437849999999997
H      51.134449999999994     49.753650000000007     46.778250000000000
H      49.530149999999999     49.450350000000000     47.803250000000006
H      46.933349999999997     46.361149999999995     46.758250000000004
H      48.026549999999993     47.080250000000007     48.250450000000001
H      51.267050000000005     48.832750000000004     44.622450000000001
H      48.042549999999999     45.217950000000002     45.824349999999995
H      51.825849999999996     46.511049999999997     43.759749999999997
H      49.612950000000005     44.658150000000006     44.078249999999997
H      44.174150000000004     47.888050000000007     49.761749999999992
H      45.183349999999997     46.702349999999996     50.229849999999999
H      47.468049999999998     48.907650000000004     46.257649999999998
H      45.771849999999993     48.120850000000004     47.085650000000001
H      47.264549999999993     47.658749999999998     51.307350000000000
H      47.868649999999995     51.062449999999998     47.963049999999996
H      47.693850000000005     50.110450000000000     52.240250000000003
H      48.765350000000005     51.341849999999994     50.282550000000001
H      49.226350000000004     49.858549999999994     46.454549999999998
