48

C      47.398199999999989     45.274549999999991     47.337299999999992
C      47.764699999999998     46.002250000000011     46.070200000000000
C      47.058399999999999     51.760950000000001     52.543500000000009
C      46.534199999999991     51.564050000000002     45.267899999999997
C      47.266799999999996     46.077649999999998     48.484200000000001
C      46.803699999999999     52.791450000000005     51.615300000000005
C      46.757999999999996     52.314650000000007     46.459100000000007
C      47.241099999999996     47.403650000000006     46.053100000000001
C      46.530699999999996     50.121950000000005     45.736000000000004
C      46.705300000000001     52.606150000000007     48.966999999999999
C      47.226499999999994     48.507650000000005     49.689200000000000
C      46.895399999999995     52.135050000000000     50.282499999999999
C      47.282899999999991     47.552450000000000     48.664100000000005
C      46.759599999999999     51.723750000000003     47.796500000000009
C      47.233199999999997     48.115450000000003     47.171999999999997
C      47.231800000000000     50.768949999999997     50.578400000000002
C      46.983199999999997     49.538649999999997     46.982500000000002
C      47.180799999999998     49.919050000000006     49.505899999999997
C      46.992299999999993     50.444049999999997     48.077300000000008
C      46.895299999999999     48.094650000000009     44.768299999999996
C      46.482199999999999     49.408750000000005     44.435100000000006
C      47.384499999999996     43.925150000000009     47.488600000000005
C      47.814699999999995     43.438250000000004     46.092100000000002
C      48.470199999999998     44.030149999999999     44.964399999999998
C      48.335400000000000     45.554949999999998     44.878000000000000
C      48.374099999999991     46.396650000000001     43.643400000000000
C      47.325499999999998     47.504650000000005     43.404600000000002
C      46.518799999999992     45.384149999999998     49.517700000000005
C      46.644699999999993     44.006450000000008     49.816299999999998
C      47.087299999999992     43.251449999999998     48.722999999999999
C      49.602799999999995     46.128950000000010     43.074700000000007
H      47.150099999999995     51.738750000000003     53.721000000000004
H      46.082499999999996     52.037950000000002     44.415900000000008
H      46.652299999999997     53.914149999999999     52.189599999999999
H      46.620299999999993     53.400849999999998     46.566299999999998
H      46.148299999999999     53.540450000000000     48.731200000000001
H      46.777699999999996     47.885449999999999     50.733500000000006
H      45.954299999999996     49.654450000000004     43.502400000000009
H      48.048299999999990     42.237850000000002     46.025199999999998
H      48.900399999999998     43.468550000000000     44.089500000000001
H      46.409099999999995     47.143050000000009     42.946500000000000
H      46.101999999999997     43.725850000000001     50.700600000000009
H      45.748100000000001     45.859850000000002     49.970399999999998
H      46.924499999999995     42.085850000000001     48.643900000000002
H      50.251899999999999     45.345250000000000     43.427500000000009
H      49.767000000000003     46.726050000000008     42.278999999999996
H      47.745599999999996     48.321150000000010     42.826099999999997
N      47.357899999999994     50.630650000000010     51.922799999999995
