31

C      44.533799999999992     46.934709999999995     47.884099999999989
C      46.921199999999999     48.594452000000004     47.785300000000007
C      44.805999999999997     47.912109999999998     49.022000000000006
C      46.007199999999997     48.612234000000001     48.973100000000002
C      44.040500000000002     47.600009999999997     50.198999999999998
C      46.296800000000005     49.474980000000002     50.043499999999995
C      44.437100000000001     48.285309999999996     51.356200000000001
C      45.465499999999999     49.229518999999996     51.139200000000002
C      48.381399999999999     48.634518000000000     47.598600000000005
C      47.931800000000010     46.388409999999993     45.279600000000002
C      49.236100000000000     47.820110000000000     46.719000000000008
C      49.029800000000009     47.174909999999997     45.418199999999999
C      50.590100000000007     47.675010000000000     47.108900000000006
C      50.217500000000001     46.490209999999990     44.804699999999997
C      51.725600000000000     47.112709999999993     46.418800000000005
C      51.561999999999998     46.388709999999989     45.087299999999999
H      46.324900000000000     48.371049300000010     46.785300000000007
H      43.709299999999999     46.331710000000001     48.278300000000002
H      45.289699999999996     46.095909999999989     47.889800000000008
H      44.327700000000000     47.349909999999994     46.852100000000007
H      43.354500000000002     46.868309999999994     50.290400000000005
H      47.109499999999997     50.040590000000009     50.181799999999996
H      44.018599999999999     48.262009999999989     52.246099999999998
H      45.864599999999996     49.869890000000012     51.953500000000005
H      48.866300000000003     49.378990000000002     48.383099999999999
H      47.341999999999999     46.030609999999996     46.143699999999995
H      47.626499999999993     45.959409999999991     44.366300000000010
H      50.854999999999990     48.335009999999997     48.056399999999996
H      49.791699999999992     46.305209999999988     43.753900000000002
H      52.645499999999998     46.888809999999992     46.997600000000006
H      52.326200000000000     46.014809999999997     44.349400000000003
