41

C      49.023799999999994     49.101299999999988     47.487249999999996
C      49.510799999999996     47.776600000000002     46.838450000000002
C      45.757899999999999     46.011300000000006     49.594449999999995
C      46.452500000000001     44.860299999999995     48.995649999999998
C      47.630199999999995     48.902699999999996     47.764650000000003
C      49.147900000000000     46.398099999999999     47.046350000000004
C      46.181899999999999     47.329099999999997     49.106250000000003
C      47.438800000000001     45.075500000000005     48.014049999999997
C      47.303699999999999     47.556200000000004     48.295150000000007
C      47.973199999999999     46.308999999999997     47.705449999999999
C      49.387999999999998     50.389099999999999     47.224350000000001
C      50.413599999999995     50.471699999999998     46.093050000000005
C      50.701699999999995     49.332300000000004     45.503650000000000
C      50.489799999999995     47.939599999999999     45.804650000000002
C      45.319099999999999     45.695300000000003     50.985150000000004
C      45.195100000000004     44.302599999999998     51.227249999999998
C      44.986899999999999     43.173800000000000     50.227350000000001
C      45.859100000000005     43.491000000000000     49.273449999999997
C      48.758199999999995     51.433999999999997     47.884950000000003
C      48.741800000000005     52.712400000000002     47.071150000000003
C      49.357800000000005     52.744699999999995     45.780850000000001
C      49.997499999999995     52.765699999999995     44.615850000000002
C      46.461099999999995     49.498800000000003     47.156550000000003
C      45.079699999999995     49.155100000000004     47.077050000000000
H      49.370200000000004     45.524200000000008     46.396150000000006
H      45.599100000000000     48.157899999999998     49.468850000000003
H      48.208599999999997     44.264600000000002     47.708650000000006
H      50.934400000000004     51.409400000000005     45.641550000000002
H      51.409399999999998     49.390200000000007     44.649250000000002
H      51.081800000000001     47.122500000000002     45.298150000000000
H      46.070100000000004     46.176500000000004     51.583050000000000
H      44.950099999999999     43.854500000000002     52.172150000000002
H      44.595599999999997     42.293400000000005     50.519149999999996
H      45.785000000000004     42.867500000000007     48.276550000000000
H      48.590800000000002     51.634100000000004     48.950850000000003
H      48.394200000000005     53.518699999999995     47.639449999999997
H      49.431000000000004     52.313199999999995     43.827849999999998
H      50.095400000000005     53.706599999999995     44.391050000000000
H      46.311100000000003     50.590599999999995     47.044250000000005
H      44.590600000000002     50.129999999999995     46.798749999999998
H      44.907900000000005     48.434600000000003     47.988150000000005
