5

C      48.083199999999991     47.974849999999989     47.907649999999990
H      47.202300000000001     47.234749999999998     47.667650000000009
H      48.797699999999999     47.253049999999995     48.550750000000008
H      47.703399999999995     48.592449999999992     48.690449999999998
H      48.036600000000000     48.765250000000002     47.309550000000002
