5

C      48.159499999999994     48.142199999999995     48.146999999999991
H      47.821799999999996     48.888199999999998     48.853000000000002
H      47.298100000000005     47.111800000000002     48.092399999999998
H      48.701899999999995     47.357799999999997     48.802099999999989
H      48.625799999999998     48.441299999999998     47.146999999999998
