59

C      46.329999999999984     49.369249999999994     50.429149999999993
C      47.740699999999997     49.710549999999998     50.783350000000013
C      48.965699999999991     46.149249999999995     44.202750000000009
C      52.075799999999994     48.570350000000005     47.294850000000011
C      46.140200000000000     48.442049999999995     49.437450000000013
C      50.221299999999992     46.726450000000000     44.613650000000007
C      51.762699999999988     47.910150000000002     46.043950000000009
C      47.734499999999990     46.262850000000000     44.983350000000002
C      48.799900000000001     49.577050000000000     49.939150000000012
C      50.982799999999990     48.945750000000004     48.112050000000011
C      47.281699999999994     47.174350000000004     47.473050000000001
C      50.319699999999990     47.639849999999996     45.734050000000011
C      47.321199999999997     48.034850000000006     48.685250000000011
C      47.985699999999987     47.205749999999995     46.252150000000000
C      48.605799999999995     48.527550000000005     48.882050000000007
C      49.623799999999996     48.486549999999994     47.792050000000003
C      49.231899999999989     47.770650000000003     46.623350000000002
C      45.341999999999992     49.615949999999998     51.499950000000013
C      45.705599999999997     50.577849999999998     52.498650000000012
C      46.989699999999992     50.550650000000005     52.911050000000003
C      48.049999999999990     49.857450000000000     52.249350000000007
C      48.789099999999998     45.366849999999999     43.051750000000013
C      49.997199999999999     44.804450000000003     42.499050000000011
C      51.313399999999994     45.328749999999999     42.956750000000000
C      51.404399999999988     46.372450000000001     43.876750000000001
C      52.761399999999988     46.880449999999996     43.931650000000005
C      53.787199999999991     46.981849999999994     42.824550000000002
C      44.771699999999989     47.786450000000002     49.322650000000010
C      43.330999999999996     49.638249999999999     52.860450000000000
C      43.955599999999997     49.130449999999996     51.743250000000003
C      43.404499999999992     50.993650000000002     53.075650000000010
C      52.917299999999990     47.495149999999995     45.197050000000004
C      42.515599999999999     48.906949999999995     53.409650000000013
C      48.972099999999990     49.098849999999999     52.964449999999999
H      53.042099999999998     48.823549999999997     47.513249999999999
H      46.959499999999998     46.805650000000000     44.375850000000000
H      49.843699999999991     49.810050000000004     50.227550000000008
H      51.122999999999998     49.640749999999997     48.783750000000012
H      46.306999999999995     46.904250000000005     47.039650000000009
H      47.785199999999996     45.039050000000003     42.933550000000011
H      50.008599999999994     44.356750000000005     41.554450000000003
H      54.581099999999999     46.127250000000004     42.826850000000007
H      53.361299999999993     46.614649999999997     41.864050000000006
H      53.931099999999994     48.226450000000000     43.066650000000010
H      44.280600000000000     47.469449999999995     50.232650000000007
H      44.925099999999993     46.733549999999994     49.084050000000005
H      43.383999999999993     49.052850000000007     50.848150000000004
H      44.013999999999989     47.546949999999995     48.561250000000001
H      42.789299999999990     51.389650000000003     53.986550000000008
H      46.575899999999997     51.643249999999995     54.445549999999997
H      53.952999999999996     47.727249999999998     45.489950000000007
H      42.420799999999993     48.490650000000002     54.370150000000010
H      41.418900000000001     49.048450000000003     53.435150000000007
H      48.955199999999998     48.745249999999999     54.081350000000015
H      49.829799999999999     48.535250000000005     52.511850000000010
H      47.065099999999994     45.464349999999996     45.059650000000005
H      52.334199999999989     44.931349999999995     42.294250000000005
O      44.583399999999990     51.489950000000007     52.760950000000008
O      47.208700000000000     50.907550000000001     54.256750000000011
