5

C      47.965749999999986     48.040299999999988     47.859409999999997
H      47.139049999999997     48.457400000000000     47.179530000000000
H      48.860950000000003     47.775199999999998     47.189380000000000
H      48.213750000000005     47.084299999999999     48.530229999999989
H      47.868250000000003     48.915700000000001     48.820470000000000
