48

C      48.390199999999993     48.696149999999989     47.667389999999997
C      48.115200000000009     48.840749999999993     46.259879999999995
C      48.921900000000001     44.276149999999994     46.700620000000001
C      48.827400000000004     47.480849999999997     48.331569999999999
C      47.667099999999998     47.638749999999995     45.570089999999993
C      49.235499999999995     44.936050000000002     47.922740000000005
C      48.115600000000008     45.091349999999998     45.849819999999994
C      49.029900000000005     46.363549999999996     47.473209999999995
C      48.259899999999995     46.446249999999999     46.285749999999993
C      48.574599999999997     49.851750000000003     48.389309999999995
C      47.952199999999998     51.148249999999997     47.888520000000000
C      47.800100000000008     51.273149999999994     46.353979999999993
C      47.641799999999996     50.096550000000001     45.628280000000004
C      49.096200000000003     50.290649999999992     49.623699999999999
C      48.732500000000009     51.461449999999992     50.375209999999996
C      47.766100000000002     52.339850000000006     48.571770000000001
C      49.717300000000002     48.136749999999999     50.650199999999998
C      49.019300000000008     47.160850000000003     49.816839999999999
C      48.065700000000000     46.236150000000002     50.499420000000001
C      50.012999999999998     44.011749999999999     48.885509999999996
C      49.448000000000000     42.520649999999996     48.992569999999986
C      46.824999999999996     46.003250000000001     49.686059999999998
C      46.126700000000007     47.194349999999993     48.970460000000003
C      48.193500000000007     45.693350000000002     51.701700000000002
C      49.926200000000001     49.483550000000001     50.580200000000005
C      46.897399999999998     47.356550000000006     44.435879999999997
H      49.146999999999998     43.127249999999997     46.577429999999993
H      47.898699999999998     44.669549999999994     44.813500000000005
H      48.066800000000008     52.265149999999998     45.900069999999999
H      47.296500000000002     49.928850000000004     44.646270000000001
H      50.194899999999997     47.527750000000005     51.222149999999999
H      50.532500000000006     44.573349999999998     49.734740000000002
H      49.985700000000001     41.545849999999994     48.724099999999993
H      45.107700000000001     47.395249999999997     49.083159999999992
H      46.441899999999997     47.140350000000005     48.096739999999997
H      46.555399999999999     48.229549999999996     49.207489999999993
H      47.504100000000001     54.454150000000006     48.344380000000001
H      49.201699999999995     45.763349999999996     52.122600000000006
H      47.449800000000003     45.178149999999995     52.165199999999999
H      50.604300000000002     49.950550000000000     51.352199999999996
H      48.946500000000007     51.536149999999999     51.538799999999995
H      47.173099999999998     48.302550000000004     43.834800000000001
H      46.816300000000005     46.249050000000004     44.198899999999995
H      50.892299999999999     43.722050000000003     48.390119999999996
N      48.033600000000000     52.449549999999995     49.825339999999997
O      48.474700000000006     42.232849999999992     49.643569999999997
O      46.575700000000005     45.076450000000001     49.025969999999987
O      47.171100000000003     53.377450000000003     47.994029999999995
