6

C      47.986365499999984     47.845049999999993     47.320499999999996
C      48.193230999999983     48.041049999999998     48.673099999999998
H      47.778994000000012     48.483249999999998     46.385600000000004
H      47.830594000000019     46.744450000000001     47.165700000000001
H      48.221005999999988     47.406450000000007     49.614399999999996
H      48.155758999999989     49.255549999999999     48.971700000000006
