97

C      49.594999999999985     45.460399999999993     50.017449999999990
C      48.969299999999997     45.988599999999998     48.812650000000005
C      47.777399999999993     49.146200000000000     52.347849999999994
C      47.502299999999998     50.057899999999997     51.207549999999998
C      49.448500000000003     46.100900000000003     51.250349999999997
C      48.326900000000002     47.223000000000006     48.635249999999999
C      48.592300000000002     47.874100000000006     52.436049999999994
C      47.872899999999994     49.385700000000007     49.923550000000006
C      48.797400000000003     47.287799999999997     51.158150000000006
C      48.069200000000002     47.847699999999996     49.911749999999998
C      50.831200000000003     44.596400000000010     49.772549999999995
C      51.008599999999994     43.851700000000001     48.606449999999995
C      49.931599999999996     44.268200000000000     47.486750000000001
C      48.978699999999996     45.132700000000007     47.597149999999999
C      47.309899999999992     49.514900000000004     53.640249999999995
C      46.694699999999990     50.803900000000006     53.689250000000001
C      46.841799999999999     51.815400000000004     52.682749999999999
C      47.178000000000004     51.384999999999998     51.362150000000000
C      51.657599999999995     42.647300000000008     48.126249999999999
C      51.331799999999994     42.575300000000006     46.657550000000001
C      50.464899999999993     43.815500000000007     46.454350000000005
C      48.758299999999998     51.483399999999996     46.933250000000001
C      48.522299999999994     51.462700000000005     45.465249999999997
C      44.550499999999992     53.484200000000008     46.158850000000001
C      47.703499999999998     52.138700000000007     47.776750000000007
C      47.592099999999995     52.225299999999997     44.891850000000005
C      45.135899999999999     52.915399999999998     47.402050000000003
C      45.354099999999995     53.128500000000010     44.909949999999995
C      46.422099999999993     52.524800000000006     47.191649999999996
C      46.390799999999992     52.539600000000000     45.670450000000002
C      49.873200000000004     50.889299999999999     47.534750000000003
C      50.843699999999991     50.138799999999996     46.828249999999997
C      50.674500000000002     50.082000000000001     45.328249999999997
C      49.577800000000003     50.626200000000004     44.668850000000006
C      50.467599999999997     50.911800000000007     48.943250000000006
C      52.402499999999996     49.770100000000006     48.519149999999996
C      52.130900000000004     49.506099999999996     47.081149999999994
C      49.418199999999992     51.551300000000005     49.681650000000005
C      48.306599999999996     52.270800000000001     49.106150000000000
C      51.311999999999991     48.990299999999998     44.460549999999998
C      51.117899999999999     48.828499999999998     43.023650000000004
C      50.147199999999991     49.452900000000007     42.425449999999998
C      49.268999999999998     50.184900000000006     43.375349999999997
C      52.688799999999993     48.449100000000008     46.408450000000002
C      52.382399999999997     48.227399999999996     45.056049999999999
C      46.783899999999996     49.705700000000000     43.442549999999997
C      47.857399999999991     50.397600000000004     42.940449999999998
C      44.600599999999993     53.271400000000007     48.789150000000006
C      43.112599999999993     53.206700000000005     48.969149999999999
C      45.227399999999996     53.198700000000009     43.317449999999994
C      46.875499999999995     48.836000000000006     44.773449999999997
C      47.782299999999999     51.405700000000003     41.775850000000005
C      45.692299999999996     49.938099999999999     42.984750000000005
C      47.218100000000000     52.464300000000001     50.193349999999995
H      47.751100000000001     47.685700000000004     47.751149999999996
H      49.108100000000000     47.563300000000005     53.521349999999998
H      47.897199999999991     49.748399999999997     48.898949999999999
H      51.391199999999991     44.367800000000010     50.758350000000007
H      48.342099999999995     45.676700000000004     46.653450000000007
H      46.442799999999998     50.895000000000003     54.748850000000004
H      46.400699999999993     52.125200000000000     49.614549999999994
H      52.157400000000003     41.667400000000008     48.516350000000003
H      50.280600000000000     43.897799999999997     45.386250000000004
H      50.984800000000000     41.588799999999999     46.220450000000000
H      50.632899999999999     44.993800000000000     52.491349999999997
H      47.372899999999994     47.930700000000009     54.979050000000001
H      52.300000000000004     42.577700000000000     46.097949999999997
H      43.802399999999999     54.259400000000007     45.915850000000006
H      53.427500000000002     49.397500000000001     48.616450000000000
H      49.705399999999990     52.237600000000008     50.670050000000003
H      49.755599999999994     49.413900000000005     41.365949999999998
H      52.988599999999998     47.557800000000007     44.446749999999994
H      53.538000000000004     47.924600000000005     46.859449999999995
H      47.748899999999999     52.643999999999998     43.852750000000000
H      42.754100000000001     52.259500000000010     49.378850000000000
H      43.002299999999998     54.098700000000001     49.759450000000001
H      51.593699999999991     48.023900000000005     41.375749999999996
H      46.329699999999995     53.383500000000005     42.970950000000002
H      44.830300000000001     54.411200000000001     43.444150000000008
H      45.430599999999991     50.090600000000002     41.696250000000006
H      47.704999999999991     49.666600000000010     45.258949999999999
H      45.838100000000004     48.521800000000006     44.969949999999997
H      46.967899999999993     52.109699999999997     41.627150000000000
H      47.527999999999999     50.757100000000001     41.020949999999999
H      48.722999999999992     52.104400000000005     41.879750000000001
H      44.839399999999991     50.154000000000003     43.664850000000001
H      47.665599999999991     48.125900000000009     44.677949999999996
H      47.491999999999997     53.373500000000000     50.600949999999997
H      42.461999999999996     53.842400000000005     48.299850000000006
H      47.175099999999993     53.934800000000003     52.486450000000005
H      44.890799999999992     52.310200000000002     42.755650000000003
N      51.658399999999993     50.425699999999999     49.379149999999996
O      49.908099999999997     45.598599999999998     52.633650000000003
O      47.740900000000003     48.662300000000009     54.658349999999999
O      46.904400000000003     53.160600000000009     52.952150000000003
O      45.199999999999996     54.003099999999996     49.455950000000001
O      52.078399999999995     48.259900000000009     42.215450000000004
