25

C      48.723499999999994     49.555749999999996     47.362349999999992
C      46.084800000000001     48.398250000000004     46.596150000000002
C      46.375999999999991     46.115549999999999     49.355350000000008
C      46.452699999999993     48.731250000000003     47.878650000000000
C      47.855800000000002     46.406450000000007     49.413649999999997
C      47.954799999999992     48.538150000000002     48.195350000000005
C      48.628500000000003     47.576549999999997     48.884650000000001
C      48.662599999999998     45.446550000000002     49.914449999999995
C      49.987299999999991     47.000450000000001     48.689650000000000
C      49.991299999999995     45.731750000000005     49.385950000000001
C      48.196799999999996     51.037649999999999     46.665550000000003
H      46.072299999999998     46.208849999999998     50.454149999999998
H      49.572699999999998     49.982150000000004     48.096750000000007
H      49.028700000000001     48.977750000000000     46.450949999999999
H      46.568500000000000     47.818650000000005     45.871850000000002
H      46.173699999999997     45.110849999999999     48.819150000000000
H      45.935000000000002     46.897250000000000     48.594650000000001
H      45.792999999999992     49.124250000000004     48.592550000000010
H      45.125900000000001     48.639250000000004     45.998449999999998
H      48.291399999999996     44.484350000000006     50.397950000000002
H      50.867599999999996     47.104349999999997     48.051549999999999
H      50.874099999999999     45.594250000000002     50.057750000000006
H      49.113500000000002     51.515649999999994     46.267749999999999
H      47.337699999999998     51.316450000000003     47.075650000000003
H      47.670499999999990     50.739550000000008     45.545850000000002
