51

C      50.303349999999995     48.830399999999997     47.885199999999998
C      50.922850000000004     49.972100000000012     47.348600000000005
C      51.599950000000000     51.109900000000010     47.972400000000007
C      51.229849999999992     51.141200000000012     49.382300000000001
C      50.523149999999994     50.114000000000004     50.139199999999988
C      49.876249999999992     49.164300000000011     49.277900000000002
C      49.831150000000001     47.364200000000011     47.288499999999999
C      50.581650000000003     46.415300000000002     47.508600000000001
C      50.993649999999995     49.954000000000008     45.742000000000004
C      50.194749999999992     45.202300000000008     46.772400000000005
C      51.418450000000000     52.505100000000013     50.070999999999998
C      48.491949999999996     48.676000000000002     49.648200000000003
C      52.553450000000005     52.089800000000011     47.291600000000003
C      50.923449999999995     49.936700000000002     51.619600000000005
C      44.769749999999995     49.060700000000011     45.971699999999998
C      48.194449999999996     47.335200000000000     45.435000000000002
C      43.928149999999995     47.966400000000007     45.592900000000000
C      47.070550000000004     47.189700000000002     44.864100000000008
C      44.584150000000001     46.634600000000006     45.538800000000009
C      45.924649999999993     46.285700000000006     45.440399999999997
C      43.549950000000003     45.537600000000012     45.532200000000003
C      46.017850000000003     44.866100000000003     45.114900000000006
C      43.789250000000003     44.181800000000010     45.632999999999996
C      45.220449999999992     43.817400000000006     45.759500000000003
H      51.654050000000005     46.346100000000007     48.232500000000002
H      47.748150000000003     49.338300000000004     49.290399999999991
H      53.540550000000003     51.943300000000008     47.661799999999999
H      49.254950000000001     45.388300000000001     46.272400000000005
H      49.981249999999996     44.351700000000008     47.400300000000001
H      50.880149999999993     44.631100000000004     45.987200000000001
H      50.681549999999994     53.301900000000003     49.697199999999995
H      52.341249999999995     52.939200000000000     50.282600000000002
H      48.169249999999998     47.562300000000008     49.222000000000008
H      48.610849999999992     48.486600000000010     50.799499999999995
H      52.423049999999996     53.251100000000008     47.355100000000007
H      50.999249999999996     52.240300000000005     51.093299999999999
H      52.997449999999994     52.214900000000000     46.186700000000002
H      50.568949999999994     50.956300000000013     52.038399999999996
H      51.940850000000005     50.110400000000013     51.811499999999995
H      50.435250000000003     49.134000000000000     52.179999999999993
H      45.873650000000005     49.457100000000011     45.544899999999998
H      44.341249999999995     50.083100000000002     45.771400000000000
H      48.869849999999992     47.932400000000001     44.809100000000001
H      42.849150000000002     48.058900000000008     45.345200000000006
H      46.705750000000002     47.315800000000010     43.820000000000007
H      42.459449999999997     45.810700000000011     45.450000000000003
H      47.078749999999992     44.546000000000006     45.238299999999995
H      42.835149999999992     43.784400000000005     45.915900000000008
H      45.411349999999992     42.698099999999997     46.204999999999998
O      48.482049999999994     47.330400000000012     46.727699999999999
O      51.042449999999995     49.934300000000007     44.616700000000009
