5

C      47.694699999999997     48.352049999999998     48.025349999999996
H      48.794899999999998     48.378350000000005     48.008950000000006
H      47.341999999999999     48.618350000000007     47.025350000000003
H      47.820200000000000     48.716949999999997     48.974649999999997
H      47.205100000000002     47.283050000000003     48.310250000000011
