22

C      50.387300000000003     48.677349999999990     46.897199999999998
C      47.411100000000005     49.885450000000006     49.727300000000000
C      49.308700000000002     48.215050000000005     46.312899999999999
C      48.324399999999997     48.624750000000006     49.309399999999997
C      48.351100000000002     47.368250000000003     47.035499999999999
C      47.746099999999998     47.560550000000006     48.347600000000000
C      47.396300000000011     46.711349999999996     46.265599999999992
C      46.720600000000005     46.930949999999996     49.139299999999992
C      46.254500000000007     46.029750000000007     46.779299999999992
C      45.872100000000003     46.346050000000005     48.117699999999999
H      50.781100000000009     48.042749999999998     47.671499999999995
H      51.124600000000001     49.226150000000004     46.278599999999997
H      47.555400000000006     50.364050000000006     50.915999999999997
H      46.225999999999999     49.721649999999997     49.530900000000003
H      49.282200000000003     48.405749999999998     45.185000000000002
H      47.887900000000002     50.705749999999995     49.237600000000000
H      48.614500000000007     49.179749999999999     48.331999999999994
H      49.397599999999997     48.651650000000004     50.109499999999997
H      47.210200000000000     46.508949999999999     45.084000000000003
H      46.402700000000010     46.956550000000007     50.132099999999994
H      45.597200000000001     45.294250000000005     46.165700000000001
H      44.875399999999999     46.065650000000005     48.238099999999989
