46

C      48.150649999999985     47.293149999999990     48.121499999999997
C      47.767749999999992     47.260949999999994     46.721600000000002
C      52.137949999999996     45.108350000000002     47.195399999999999
C      49.218849999999996     46.790649999999999     48.837900000000012
C      48.864949999999986     46.562950000000001     45.864200000000004
C      51.669849999999990     45.873750000000001     48.243600000000008
C      51.262649999999987     45.517249999999997     46.031300000000009
C      50.367849999999997     46.459449999999997     47.964400000000005
C      50.069949999999999     46.204650000000001     46.479800000000004
C      46.871749999999992     47.418849999999992     48.976600000000012
C      45.726349999999996     47.913150000000002     48.460300000000011
C      45.591549999999998     48.287649999999999     47.096700000000006
C      46.647949999999994     47.883949999999999     46.173500000000004
C      47.093049999999998     47.206649999999996     50.480800000000009
C      46.301249999999996     47.734449999999995     51.531800000000004
C      45.094049999999996     48.264949999999999     50.961600000000004
C      44.948449999999994     48.425049999999999     49.631000000000007
C      48.302749999999996     46.675550000000001     50.970500000000008
C      44.494749999999996     49.180049999999994     46.825100000000006
C      44.587249999999997     49.141449999999992     44.244600000000005
C      45.551449999999996     48.141149999999996     43.879899999999999
C      46.570349999999998     47.569849999999995     44.728000000000002
C      43.775949999999995     49.165250000000000     49.281300000000009
C      43.712549999999993     49.711749999999995     48.005300000000005
C      48.458349999999996     46.277149999999992     44.598300000000002
C      47.415749999999996     46.790849999999992     43.950000000000003
C      44.279649999999997     49.315049999999999     51.954600000000006
C      44.624549999999992     50.739350000000002     52.150399999999998
C      44.041549999999994     49.478349999999992     45.522200000000005
H      53.118050000000004     44.419150000000002     47.270100000000006
H      52.143949999999997     45.658549999999998     49.217400000000005
H      51.605449999999998     45.921849999999992     45.125100000000003
H      46.468149999999994     47.736750000000001     52.593300000000006
H      44.093649999999997     49.834350000000001     43.371400000000001
H      45.234649999999995     48.000749999999996     42.926000000000009
H      43.004349999999995     49.594149999999999     50.032100000000007
H      42.881949999999996     50.358849999999990     47.796500000000002
H      49.272349999999996     45.613849999999999     44.239200000000004
H      47.326649999999994     46.440649999999998     42.879500000000000
H      44.157249999999998     51.580849999999998     51.548300000000005
H      45.042549999999999     51.009949999999989     53.120500000000000
H      48.985649999999985     46.310149999999993     52.961400000000005
H      43.044249999999998     49.913249999999991     45.389000000000003
N      49.229749999999989     46.492750000000001     50.183100000000003
O      43.591949999999997     48.703849999999996     52.706099999999999
O      48.290649999999992     46.121749999999992     52.274600000000000
