6

C      47.439749999999997     47.729199999999992     48.583799999999997
C      48.556150000000002     47.575899999999997     48.069600000000001
H      47.270550000000000     48.716200000000001     48.886400000000002
H      46.588650000000001     47.378200000000000     48.104099999999995
H      49.411349999999999     47.584800000000001     48.748399999999997
H      48.963950000000011     47.283799999999999     47.113599999999998
