21

C      48.548999999999992     48.701249999999995     49.757599999999996
C      47.413099999999993     49.797249999999998     47.453900000000004
C      48.467399999999998     47.847149999999999     48.321299999999994
C      47.639599999999994     48.348150000000004     47.370900000000006
C      48.913800000000002     46.504550000000002     48.490200000000002
C      47.752499999999998     47.742950000000000     46.007800000000003
C      48.533600000000000     45.705249999999999     47.275400000000005
C      47.730100000000000     46.098550000000003     46.204899999999995
C      47.816799999999994     50.101950000000002     50.103600000000000
C      47.609000000000002     50.521050000000002     48.629400000000004
H      47.841500000000003     47.947550000000000     50.173100000000005
H      49.187800000000003     48.263550000000002     50.548999999999992
H      47.322600000000001     50.285249999999998     46.577900000000000
H      49.192900000000002     45.843150000000001     49.405199999999994
H      46.807099999999998     47.821150000000003     45.384600000000006
H      48.408600000000000     44.543149999999997     47.006399999999999
H      47.674599999999998     45.730750000000000     45.115600000000001
H      47.005599999999994     49.911749999999998     50.660599999999988
H      48.310600000000001     50.905850000000001     50.884399999999999
H      47.032499999999999     51.456850000000003     48.604399999999998
H      48.511299999999999     48.025750000000002     45.328299999999999
