20

C      49.664999999999992     48.166184999999992     44.781199999999991
C      46.143300000000004     46.997754999999998     47.023600000000002
C      49.537599999999998     47.534544999999994     45.887000000000000
C      47.003700000000002     48.172204999999998     47.066000000000003
C      50.095000000000006     47.924025000000000     47.105199999999996
C      49.162199999999999     48.339995000000002     48.161299999999997
C      48.839300000000001     49.440725000000000     51.482100000000003
C      47.772300000000001     48.256915000000006     48.277900000000002
C      48.151699999999998     48.973624999999998     50.499600000000001
C      47.237900000000003     48.404844999999995     49.649199999999993
H      50.692200000000007     48.880044999999996     44.852099999999993
H      49.272100000000002     48.005404999999996     43.815899999999999
H      46.573300000000003     45.934055000000001     47.527699999999996
H      45.187500000000000     47.338854999999995     46.324299999999994
H      46.495300000000000     47.810634999999998     49.798900000000003
H      47.327600000000004     48.313454999999998     46.073899999999995
H      49.789099999999998     50.065944999999999     51.212299999999999
H      49.522600000000004     48.268374999999992     49.194800000000001
H      47.977499999999999     49.609684999999999     52.184100000000001
H      50.812500000000000     48.705015000000003     47.174700000000001
