6

C      48.004549999999995     47.496399999999994     47.417499999999990
C      47.943649999999998     48.325300000000013     48.552600000000005
H      47.278849999999998     46.710599999999999     47.315500000000000
H      48.665450000000000     49.289400000000001     48.535199999999996
H      48.721150000000002     47.603500000000011     46.795400000000001
H      47.382950000000001     47.603500000000011     49.204599999999999
