6

C      47.735249999999994     47.492399999999989     48.168154999999992
C      48.280650000000001     48.677900000000008     47.687179999999998
H      47.563049999999997     46.669600000000003     47.468861999999994
H      47.347850000000001     47.588099999999997     49.264274999999998
H      48.652149999999999     48.779700000000005     46.735725000000002
H      48.292250000000003     49.330399999999997     48.589384999999993
