18

C      49.652999999999984     46.523799999999994     48.762950000000004
C      48.950900000000004     49.949800000000010     47.506750000000004
C      48.625399999999999     47.192000000000007     47.834250000000004
C      48.246899999999997     48.493300000000005     47.626650000000005
C      47.492699999999999     46.384299999999996     47.955950000000009
C      46.872100000000003     48.961900000000000     47.585750000000012
C      46.309399999999997     46.742300000000000     47.246750000000013
C      46.116199999999992     48.144800000000004     46.799150000000004
H      46.705199999999991     49.968900000000005     47.483450000000012
H      49.372699999999995     45.487099999999998     48.683450000000001
H      49.346999999999994     50.047899999999998     48.439650000000007
H      49.962400000000002     49.873800000000003     46.823250000000009
H      49.690399999999997     46.621400000000008     49.808850000000000
H      50.761600000000001     46.499099999999999     48.278550000000003
H      48.310299999999998     50.645200000000003     46.902650000000001
H      47.552700000000002     45.354799999999997     48.401650000000011
H      45.318600000000004     46.066900000000004     47.232250000000001
H      45.238399999999999     48.530700000000010     46.191150000000000
