22

C      50.031419999999997     48.720864999999989     48.331849999999996
C      49.203919999999997     49.681764999999999     49.269649999999999
C      49.713419999999999     47.240264999999994     48.789550000000006
C      47.541820000000001     49.176365000000004     49.125650000000007
C      48.385720000000006     47.116765000000001     48.042050000000003
C      47.298919999999995     47.999965000000003     48.059750000000008
C      48.190219999999997     46.061594999999997     46.994050000000001
C      46.084420000000009     47.915064999999998     47.428950000000000
C      46.920919999999995     45.880614999999992     46.426249999999996
C      45.778590000000008     46.725475000000003     46.613050000000001
H      51.234719999999996     49.130065000000002     48.018249999999995
H      49.634720000000002     48.823764999999995     47.342349999999996
H      49.287419999999997     49.555165000000002     50.374150000000000
H      49.335419999999999     50.760265000000004     49.031350000000003
H      49.465420000000009     47.251464999999996     49.896950000000004
H      50.604320000000001     46.611355000000003     48.404350000000008
H      47.105119999999999     49.784165000000002     48.429450000000003
H      46.841419999999999     49.388665000000003     50.087450000000004
H      48.968720000000005     45.266904999999994     46.758250000000004
H      45.248970000000000     48.347065000000001     47.874949999999998
H      46.992919999999998     45.239734999999996     45.625850000000000
H      44.765280000000004     46.442814999999996     46.344049999999996
