5

C      48.194149999999993     48.244649999999993     47.863649999999993
H      48.912349999999996     48.729749999999996     47.153250000000000
H      48.072350000000000     48.709450000000004     48.846750000000000
H      47.087650000000004     48.557350000000000     47.561549999999997
H      48.388749999999995     47.270250000000004     48.189149999999998
