33

C      48.938099999999991     47.852649999999997     48.706799999999987
C      48.016300000000001     46.739350000000002     51.346699999999998
C      49.231099999999991     48.402050000000003     50.125600000000006
C      49.290700000000001     47.200450000000004     51.036200000000008
C      50.445799999999998     49.040149999999997     50.427300000000002
C      50.526199999999996     46.652850000000001     51.552300000000002
C      51.600999999999999     48.847049999999996     51.115299999999991
C      51.505599999999994     47.548050000000003     51.899200000000008
C      44.175100000000000     46.711550000000003     48.057299999999998
C      48.474399999999996     48.663650000000004     47.774599999999992
C      45.149699999999996     47.475949999999997     47.935099999999991
C      47.639299999999999     47.776049999999998     46.844999999999999
C      46.256699999999995     47.336849999999998     46.824100000000001
C      48.291100000000000     47.177750000000003     45.742699999999999
C      45.638300000000001     47.310649999999995     45.526100000000000
C      47.882899999999999     46.668449999999993     44.525899999999993
C      46.540500000000002     47.213449999999995     44.361899999999991
H      48.472200000000001     49.113550000000004     50.467100000000002
H      49.044100000000000     46.774249999999995     48.595500000000001
H      48.015799999999999     45.786950000000004     51.835299999999989
H      47.101199999999999     47.111750000000001     50.718499999999992
H      50.627800000000001     50.213049999999996     50.015999999999991
H      50.605299999999993     45.817949999999996     52.440100000000001
H      52.462100000000000     49.495049999999992     50.861400000000003
H      51.945899999999988     47.248149999999995     52.795600000000007
H      43.537900000000000     46.026150000000001     47.363500000000002
H      43.626700000000000     46.668549999999996     48.899000000000001
H      48.644599999999997     49.877849999999995     47.722399999999993
H      45.276499999999999     48.056849999999997     48.923899999999989
H      49.433000000000000     47.077650000000006     45.825299999999999
H      44.695000000000000     47.272149999999996     45.272399999999990
H      48.524799999999999     46.114850000000004     43.786499999999990
H      46.533899999999996     47.459050000000005     43.204399999999993
