22

C      50.184749999999987     48.062499999999993     48.753199999999993
C      49.901749999999993     49.344999999999999     48.305999999999997
C      48.915849999999992     47.724200000000003     49.643500000000003
C      48.706249999999997     49.074300000000008     47.259200000000007
C      47.822649999999996     47.303200000000004     48.643200000000007
C      47.630449999999996     47.913600000000002     47.409500000000008
C      46.614049999999992     46.680199999999999     49.000399999999999
C      46.667550000000006     47.804800000000000     46.503799999999998
C      45.723649999999992     46.184600000000003     47.930900000000008
C      45.673050000000003     46.821300000000001     46.688400000000001
H      51.273849999999996     47.902400000000000     48.977900000000005
H      50.041650000000004     47.326300000000003     47.709299999999999
H      50.798950000000005     49.557800000000000     47.741700000000009
H      49.736549999999994     50.332999999999998     48.888900000000007
H      48.437449999999998     48.477199999999996     50.135900000000007
H      49.160550000000001     46.912599999999998     50.344600000000000
H      48.011949999999999     49.928200000000004     47.273899999999998
H      49.034750000000003     49.008499999999998     46.302400000000006
H      46.020049999999998     45.909400000000005     49.670299999999997
H      46.738249999999994     48.521000000000001     45.655400000000000
H      44.726150000000004     45.667000000000002     48.035200000000003
H      45.054450000000003     46.199399999999997     45.880899999999997
