6

C      47.990099999999998     48.677639999999990     47.391349999999989
C      48.280700000000003     47.504869999999997     47.963149999999999
H      46.969000000000001     49.120619999999988     47.235349999999997
H      48.960900000000002     49.227530000000002     47.387450000000001
H      49.030999999999999     47.408299999999997     48.764650000000003
H      47.471399999999996     46.772469999999998     47.992150000000009
