48

C      49.140149999999991     47.891949999999994     48.737859999999984
C      48.177149999999997     46.822850000000003     48.578539999999990
C      50.076850000000000     48.387149999999998     44.215269999999990
C      50.155049999999996     48.393949999999997     47.829529999999991
C      48.603650000000002     45.896149999999999     46.174179999999993
C      50.562149999999995     48.846650000000004     45.500287999999998
C      48.958849999999998     47.374450000000003     44.308369999999996
C      50.032649999999997     48.053450000000005     46.437849999999997
C      49.147050000000000     47.240349999999999     45.665581999999986
C      48.840449999999997     48.672350000000002     49.937259999999995
C      47.876750000000001     48.457150000000006     50.973549999999989
C      47.235050000000001     47.174450000000000     50.812860000000001
C      47.187649999999998     46.453750000000007     49.590850000000003
C      49.216149999999992     50.123650000000005     49.886470000000003
C      49.034550000000003     51.095750000000002     50.879270000000005
C      47.905749999999998     50.973450000000007     51.764390000000006
C      47.244050000000001     49.597250000000010     51.831219999999988
C      50.257749999999994     50.611250000000005     49.012360000000001
C      50.815249999999999     49.701450000000001     48.128079999999997
C      51.968950000000000     50.001950000000001     47.274239999999992
C      51.735949999999995     49.744950000000010     45.544106999999997
C      45.097949999999997     45.661250000000003     49.850909999999999
C      48.377249999999997     45.763750000000002     47.453929999999986
C      46.223750000000003     45.216349999999998     49.635439999999988
C      47.962750000000000     44.883749999999999     45.127251999999999
C      44.263050000000000     45.180150000000005     48.665309999999991
C      44.214750000000002     46.036650000000002     50.620059999999995
H      50.335349999999998     48.554949999999998     43.167770000000004
H      48.456649999999996     45.069949999999999     43.975070000000017
H      48.495350000000002     46.883150000000001     43.579470000000015
H      46.705750000000002     46.568050000000007     51.617679999999993
H      49.632249999999992     52.026649999999997     50.450639999999993
H      47.590350000000001     51.919149999999995     52.469459999999998
H      50.494849999999992     51.683250000000008     48.915819999999997
H      52.138449999999999     50.989449999999998     47.230459999999994
H      52.873849999999997     49.389950000000006     47.583149999999989
H      51.168950000000002     50.640050000000009     45.090272999999996
H      52.672249999999998     49.546849999999999     45.292398999999989
H      48.154249999999998     44.621749999999999     47.702039999999997
H      46.297150000000002     44.078750000000007     50.029799999999994
H      46.916449999999998     45.127749999999999     44.957222299999998
H      48.140549999999998     44.007550000000002     45.785240999999999
H      43.126150000000003     45.201150000000005     48.646289999999993
H      44.398850000000003     43.973350000000003     48.556449999999998
H      44.514350000000000     45.748550000000002     47.754409999999993
H      43.157449999999997     45.964250000000000     50.241219999999998
H      44.429249999999996     46.950750000000006     51.403739999999999
O      46.714449999999999     49.217250000000000     52.832229999999996
