16

C      46.391537499999998     49.368604999999988     48.621649999999988
C      47.084839500000001     48.014814999999999     45.944049999999990
C      47.244059499999992     48.142974999999993     48.594849999999994
C      47.674859499999997     47.822805000000002     47.142249999999990
C      47.367569499999988     47.232174999999998     49.629450000000006
C      48.755319499999999     46.882504999999995     47.295850000000002
C      48.469149499999986     46.397745000000000     49.809649999999991
C      49.073389499999990     46.353025000000002     48.568950000000001
H      47.046169500000005     50.241574999999997     48.831549999999993
H      45.665170500000002     49.826085000000006     48.005349999999993
H      45.993458500000003     48.402905000000004     45.925749999999994
H      47.273429499999992     47.171925000000002     45.223549999999989
H      46.828849500000004     47.602365000000006     50.401450000000011
H      49.431919499999992     46.732744999999994     46.571449999999999
H      48.979449500000001     46.177404999999993     50.776450000000011
H      50.334829499999998     45.758425000000003     48.789450000000002
