6

C      48.122349999999990     48.137099999999997     47.468299999999992
H      48.428250000000006     48.204200000000000     49.379400000000004
H      47.271749999999997     48.522800000000004     46.925399999999996
H      48.728250000000003     48.905199999999994     46.620599999999996
H      48.474550000000008     47.094800000000006     47.886700000000005
O      48.431250000000006     48.890700000000010     48.654100000000000
