22

C      50.286449999999988     49.529949999999999     47.947799999999987
C      49.196549999999995     50.141050000000007     46.947100000000006
C      49.772649999999999     48.321349999999995     48.899000000000001
C      47.710349999999998     49.729849999999999     47.099699999999999
C      48.493849999999995     47.628250000000008     48.366799999999998
C      47.419449999999998     48.374949999999998     47.673900000000003
C      48.146549999999998     46.339849999999998     48.532600000000002
C      46.398949999999999     47.782150000000001     47.126599999999996
C      46.849550000000001     45.746850000000009     48.237499999999997
C      46.004449999999999     46.357849999999999     47.450599999999994
H      51.039949999999997     49.125650000000007     47.332800000000006
H      50.471350000000008     50.459750000000000     48.449500000000000
H      49.408850000000001     51.233149999999995     46.844099999999997
H      49.538249999999998     49.432450000000003     46.240800000000007
H      49.465149999999994     48.742550000000008     49.773399999999995
H      50.622549999999997     47.529449999999997     48.496700000000004
H      47.074050000000000     50.742649999999998     47.586299999999994
H      47.142949999999999     50.198650000000001     46.226600000000005
H      48.925349999999995     45.724950000000007     49.124000000000009
H      45.737249999999996     48.412750000000003     46.528800000000004
H      46.071750000000002     44.766850000000005     48.881699999999995
H      44.960050000000003     46.050849999999997     47.424700000000001
