6

C      47.456199999999995     48.171599999999991     48.502399999999987
C      48.290900000000001     47.803899999999999     47.301599999999993
H      47.580500000000008     47.594700000000003     49.466600000000000
H      47.119499999999995     49.237899999999996     48.983299999999993
H      48.880500000000005     46.762100000000004     47.184399999999997
H      48.469600000000007     48.479699999999994     46.533400000000000
