6

C      48.597749999999991     48.338549999999991     47.945049999999995
C      47.610550000000003     47.537550000000003     47.899649999999994
H      49.065249999999999     49.104349999999997     47.041049999999998
H      49.025150000000004     48.091149999999999     49.006749999999997
H      47.153449999999999     46.895650000000003     48.641349999999989
H      46.934750000000001     47.695450000000001     46.993250000000003
