8

C      48.669549999999994     47.627849999999995     47.940694999999991
C      47.242849999999997     48.352750000000000     47.943384999999992
H      49.056349999999995     47.720449999999985     49.036315000000002
H      49.609150000000000     48.095449999999985     47.282044999999997
H      46.390850000000000     47.568950000000001     48.228465000000000
H      47.406050000000000     49.132149999999996     48.861814999999993
H      48.927050000000001     46.867850000000004     46.963684999999998
H      47.030549999999998     48.864849999999990     47.074344999999994
