16

C      46.302199999999999     48.552999999999997     48.424799999999991
C      48.799500000000002     49.440199999999997     49.667999999999999
C      47.451300000000010     48.143799999999992     48.179699999999997
C      48.557399999999994     48.194600000000001     49.007300000000001
C      47.687000000000005     47.664300000000004     46.760800000000003
C      49.608600000000003     47.202099999999994     48.989600000000003
C      48.674200000000006     46.730399999999996     46.626800000000003
C      49.591700000000003     46.584499999999998     47.736800000000002
H      46.091100000000004     49.111299999999993     49.425300000000000
H      45.451000000000001     48.937999999999995     47.716200000000001
H      48.067000000000000     49.976999999999997     50.162200000000006
H      49.724200000000003     49.212100000000000     50.406100000000002
H      46.980000000000011     47.856500000000004     45.865400000000001
H      50.337700000000005     47.407000000000004     49.747100000000003
H      48.982700000000001     46.622300000000003     45.593899999999998
H      50.548999999999999     46.023000000000003     47.697400000000002
