6

C      48.329149999999998     47.510749999999987     48.289999999999992
C      47.793350000000004     48.435449999999996     47.556599999999996
H      48.475350000000006     46.430850000000000     48.112299999999998
H      48.546149999999997     47.734849999999994     49.415900000000001
H      47.453850000000003     48.182350000000007     46.584099999999999
H      47.944350000000000     49.569150000000000     47.775799999999997
