5

C      48.068874999999998     48.108649999999990     48.225334999999987
H      47.073594999999997     48.680449999999993     48.396695000000008
H      48.213795000000005     47.218350000000001     48.690984999999998
H      48.926405000000003     48.781649999999999     48.403145000000009
H      48.162025000000000     47.506050000000002     47.309015000000002
