5

C      47.835949999999997     48.149149999999992     47.975414999999991
H      47.373449999999998     48.675550000000001     48.808335000000000
H      47.510449999999999     47.324449999999999     48.772665000000003
H      48.850649999999995     48.222250000000003     48.122994999999989
H      47.149350000000005     48.248750000000001     47.191665000000000
