5

C      48.150699999999993     48.014400000000002     48.024899999999988
H      47.091200000000001     47.483000000000011     48.122100000000003
H      48.103300000000004     48.494799999999998     46.997699999999995
H      48.908799999999999     47.277900000000002     47.954200000000000
H      48.173000000000002     48.722099999999998     49.002300000000005
