20

C      50.237649999999995     50.391099999999994     49.526100000000000
C      48.886049999999997     45.920499999999997     46.773600000000002
C      49.553449999999998     49.261599999999994     49.366299999999995
C      49.017150000000001     46.607399999999991     47.987099999999998
C      48.509050000000002     49.049799999999998     48.410300000000007
C      48.027749999999997     47.676700000000004     47.997000000000000
C      47.323549999999997     49.681599999999996     48.834199999999996
C      46.817050000000002     47.061599999999991     47.468199999999996
C      46.064850000000000     49.218799999999995     48.286299999999997
C      45.799149999999997     48.086300000000001     47.376999999999995
H      51.023550000000000     50.304499999999997     50.154399999999995
H      50.209550000000000     51.001500000000000     48.621099999999998
H      48.606450000000002     46.474799999999995     45.774900000000002
H      49.517849999999996     44.998500000000000     46.754999999999995
H      49.180650000000000     46.069600000000001     49.049999999999997
H      46.769850000000005     45.803599999999996     47.607500000000002
H      44.976450000000000     49.362999999999992     48.704700000000003
H      45.027349999999998     47.888500000000001     46.857900000000001
H      49.781350000000003     48.576100000000004     50.225099999999998
H      47.486150000000002     50.628899999999994     49.646100000000004
