6

C      47.792199999999987     47.828949999999992     47.435399999999987
C      48.340799999999987     48.028249999999993     48.764379999999996
H      48.565899999999999     47.750250000000001     46.475839999999998
H      46.778700000000001     47.402049999999996     47.244180000000000
H      49.221299999999999     48.597950000000004     48.806530000000002
H      48.064899999999994     47.441349999999993     49.524160000000002
