7

C      47.939250000000001     48.157349999999987     48.102454999999992
C      47.333649999999999     48.699150000000003     46.987555000000000
C      48.659050000000001     47.401769999999999     49.019355000000004
H      49.183749999999996     48.110909999999997     49.764555000000001
H      47.071249999999999     49.824280000000002     46.972355000000007
H      46.816250000000004     48.047659999999993     46.235444999999999
H      48.585550000000005     46.175719999999998     48.928754999999995
