57

C      47.478049999999982     51.554549999999992     49.000649999999993
C      45.255749999999999     50.383650000000003     45.762749999999997
C      44.849149999999987     49.012850000000000     45.637749999999997
C      49.361149999999988     48.559550000000002     51.615349999999992
C      46.111950000000000     45.116950000000003     49.666449999999998
C      45.179249999999989     50.710949999999997     47.221850000000003
C      48.769649999999992     47.159550000000010     51.377549999999999
C      47.409050000000001     45.538150000000002     50.169249999999991
C      48.709049999999998     49.484750000000005     50.715249999999997
C      45.005249999999997     47.953749999999999     46.733049999999992
C      45.423949999999998     46.294950000000000     49.116149999999990
C      46.730449999999998     50.238050000000001     49.294349999999994
C      47.644950000000001     46.931250000000006     50.518749999999997
C      45.721349999999994     49.909950000000009     48.284449999999993
C      47.271749999999990     49.378650000000007     50.235949999999988
C      45.548749999999991     48.548550000000006     47.851349999999996
C      45.762049999999995     47.695050000000009     49.006549999999990
C      46.839949999999995     48.005650000000003     49.917349999999999
C      46.072849999999995     50.915750000000003     44.737849999999995
C      46.149449999999995     50.665750000000003     43.404949999999999
C      45.481349999999999     49.409850000000006     43.133849999999995
C      44.942949999999989     48.713650000000001     44.270849999999996
C      50.520849999999989     48.920450000000002     52.303249999999991
C      51.192749999999997     47.671750000000003     52.395849999999996
C      50.558549999999990     46.444950000000006     52.780449999999988
C      49.513549999999988     46.046550000000011     51.989549999999994
C      49.462449999999997     44.558750000000003     51.590849999999989
C      48.204450000000001     44.367249999999999     50.587849999999989
C      45.182449999999996     52.003950000000003     47.754750000000001
C      46.771949999999997     52.271150000000006     44.894849999999991
C      48.093849999999996     52.713850000000008     44.563350000000000
C      44.458049999999993     47.332450000000009     43.987849999999995
C      45.249249999999996     43.820050000000009     49.741749999999996
H      48.063049999999997     51.955950000000001     49.687449999999998
H      45.162050000000001     52.193449999999999     48.894549999999995
H      47.191749999999992     52.551550000000006     48.334149999999994
H      49.217649999999999     50.120249999999999     50.070049999999995
H      45.078649999999989     47.062650000000005     46.266149999999996
H      48.594649999999994     44.054050000000004     49.646749999999997
H      44.552050000000001     45.958550000000002     48.490949999999998
H      46.968649999999990     51.206850000000003     42.970550000000003
H      46.110049999999994     48.766350000000003     42.429450000000003
H      50.963649999999994     49.890749999999997     52.388249999999999
H      52.235250000000001     47.746949999999998     52.270849999999996
H      51.100949999999990     46.117649999999998     53.570549999999997
H      49.724449999999997     43.834750000000000     52.369450000000001
H      47.606349999999999     43.432550000000006     51.108249999999998
H      48.325249999999990     51.308250000000001     48.487249999999989
H      46.566749999999992     52.140349999999998     45.985249999999994
H      44.764749999999999     52.954150000000013     47.440649999999991
H      48.703649999999989     52.733050000000006     43.446249999999992
H      43.764749999999999     46.610150000000004     44.597449999999995
H      44.334649999999989     44.111550000000008     50.046349999999990
H      50.402249999999988     44.075450000000004     51.066149999999993
H      48.730249999999991     53.139949999999999     45.458150000000003
O      44.726349999999989     46.792950000000005     43.003149999999991
O      45.616549999999997     42.860050000000001     49.070849999999993
