7

C      48.146799999999992     48.237449999999995     48.863100000000003
C      47.985500000000002     47.939650000000007     47.342299999999994
H      48.592200000000005     48.554650000000002     46.552000000000007
H      49.096800000000002     48.579349999999998     48.921300000000002
H      47.564000000000000     48.956849999999996     49.447999999999993
H      46.903199999999998     48.035150000000002     47.019800000000004
H      48.408000000000001     47.043150000000004     46.994500000000002
