6

C      48.168249999999986     47.212849999999989     47.690999999999995
C      47.647749999999995     48.236750000000001     48.325000000000003
H      48.834949999999999     46.808949999999996     48.295500000000004
H      48.174849999999999     47.087050000000005     46.623800000000003
H      47.553049999999992     48.416550000000001     49.376199999999997
H      47.165050000000001     49.191050000000004     47.976199999999992
