6

C      47.522399999999998     48.120899999999992     48.454049999999988
C      48.462299999999999     48.066900000000004     47.530749999999998
H      47.435700000000004     48.532600000000002     49.405349999999999
H      46.451999999999998     47.426800000000000     48.344449999999995
H      49.548000000000002     48.573200000000000     47.681049999999999
H      48.420400000000001     47.657499999999999     46.594650000000001
