5

C      47.982749999999996     47.891799999999989     47.846699999999991
H      47.212850000000003     47.633199999999995     48.701899999999995
H      48.133650000000003     48.957500000000003     47.366000000000000
H      48.787149999999997     47.775299999999994     48.630899999999997
H      48.217150000000004     47.042499999999997     47.298100000000005
