34

C      48.832449999999994     46.014849999999996     46.882199999999990
C      47.683549999999997     45.330249999999992     47.353999999999999
C      47.254149999999996     50.571449999999999     48.194400000000002
C      46.522850000000005     49.780349999999999     49.221399999999996
C      48.989050000000006     47.507949999999994     46.823000000000000
C      46.724249999999998     46.239050000000006     47.930199999999999
C      47.969250000000002     49.732550000000003     47.333700000000000
C      46.386250000000004     48.441350000000000     49.304400000000001
C      47.968649999999997     48.291550000000001     47.378099999999989
C      47.129050000000007     47.561849999999993     48.360599999999991
C      50.306750000000008     48.249650000000003     46.370100000000001
C      49.836450000000013     49.547649999999990     45.605100000000000
C      49.009550000000004     50.372749999999996     46.549599999999998
C      50.830750000000009     47.440950000000001     45.219600000000000
C      46.782750000000007     50.329449999999994     50.621499999999997
C      45.756850000000000     47.520650000000003     50.379399999999990
H      49.546950000000010     45.238150000000005     46.455700000000000
H      47.860150000000004     44.310450000000003     47.850400000000008
H      47.286050000000003     51.689549999999997     47.909100000000002
H      45.823250000000002     45.882049999999992     48.650300000000001
H      50.802250000000015     48.146649999999994     47.273400000000002
H      50.789550000000006     50.144649999999999     45.189099999999996
H      49.311350000000004     49.269750000000002     44.605699999999999
H      48.597750000000005     51.269149999999996     45.967599999999997
H      49.740350000000007     51.086550000000003     47.209299999999999
H      51.524950000000004     46.618849999999995     45.273699999999998
H      49.880750000000006     47.201549999999997     44.666200000000003
H      51.271050000000017     48.137450000000001     44.522300000000001
H      46.190950000000001     46.575149999999994     50.205300000000001
H      46.327150000000003     51.380949999999999     50.556200000000004
H      47.804850000000002     50.269649999999999     51.042600000000000
H      44.475049999999996     47.619050000000001     50.633499999999998
H      46.253150000000005     47.832650000000001     51.287599999999998
H      46.266750000000002     49.771349999999998     51.477699999999999
