6

C      47.725599999999993     47.703699999999998     48.624599999999994
C      48.309399999999997     47.864300000000000     47.459099999999999
H      48.339799999999997     47.743700000000004     49.616000000000000
H      46.633200000000002     47.998900000000006     48.422100000000000
H      49.366799999999998     47.848399999999998     47.451999999999998
H      47.939200000000000     48.296300000000002     46.384000000000000
