42

C      46.802299999999995     48.316149999999993     46.132499999999986
C      47.144599999999997     49.450749999999999     47.030999999999992
C      49.472600000000000     45.283850000000001     48.734499999999997
C      49.540900000000008     46.375950000000003     49.759099999999989
C      47.582599999999999     47.052449999999993     46.298199999999994
C      47.987700000000004     49.160149999999987     48.063999999999993
C      49.063000000000002     45.494550000000004     47.435599999999994
C      49.286699999999996     47.707350000000005     49.600099999999998
C      48.472700000000003     46.808650000000000     47.369099999999989
C      48.712900000000005     47.878450000000001     48.286499999999990
C      45.839600000000004     48.469449999999995     45.223999999999990
C      45.182699999999997     49.864649999999997     45.221800000000002
C      45.600999999999999     51.028749999999988     45.900999999999996
C      46.525099999999995     50.795249999999996     47.039699999999996
C      50.199100000000001     44.066850000000002     48.905000000000001
C      50.667699999999996     44.037049999999994     50.192499999999995
C      50.763000000000005     44.973249999999993     51.313400000000001
C      50.302900000000008     46.259550000000004     51.055099999999996
C      45.588899999999995     47.496250000000003     44.136499999999998
C      44.722400000000007     47.800950000000000     43.017699999999991
C      44.085000000000008     49.061849999999993     43.002299999999991
C      44.358800000000002     49.979950000000002     43.994000000000000
C      47.337500000000006     46.025549999999996     45.309299999999993
C      46.386200000000002     46.330749999999995     44.256000000000000
C      51.469800000000006     44.201750000000004     52.606200000000001
H      48.197299999999998     49.910249999999991     48.853399999999993
H      49.166100000000000     44.939949999999996     46.511499999999998
H      49.776799999999994     48.664749999999998     50.294899999999998
H      46.457200000000000     51.487549999999999     47.776100000000000
H      50.507400000000004     43.484949999999998     48.119900000000001
H      51.027400000000000     43.018450000000001     50.683599999999998
H      50.443300000000008     47.197850000000003     51.523600000000002
H      44.531800000000004     47.144049999999993     42.302700000000002
H      43.458500000000001     49.392949999999999     42.305999999999997
H      44.390299999999996     50.915049999999994     43.956699999999998
H      47.768600000000006     44.974050000000005     45.696699999999993
H      46.120400000000004     45.390450000000001     43.456800000000001
H      50.957499999999996     43.196950000000001     52.574199999999990
H      52.541499999999999     43.796549999999996     52.384000000000000
H      51.390000000000001     44.761150000000001     53.697299999999998
H      45.882599999999996     52.981549999999999     46.370599999999996
O      45.522099999999995     52.312550000000002     45.629999999999995
