5

C      47.857999999999990     48.069749999999992     47.737399999999994
H      48.766500000000001     48.658850000000001     47.821600000000004
H      47.664800000000000     48.021050000000002     48.806500000000000
H      47.861600000000003     47.127849999999995     47.193500000000000
H      47.233499999999999     48.872150000000005     47.724699999999999
