16

C      46.113574999999983     49.556999999999988     47.349199999999989
C      46.662275000000001     46.707999999999998     46.348099999999988
C      47.235013000000002     48.950999999999993     47.554999999999993
C      47.556463000000001     47.383700000000005     47.116900000000001
C      48.303225000000005     49.472799999999992     48.360799999999998
C      48.769715000000005     46.645600000000002     47.435299999999998
C      49.498444999999997     48.805599999999998     48.791799999999995
C      49.576665000000013     47.429100000000005     48.313099999999991
H      45.835874999999994     50.601600000000005     47.603699999999989
H      45.239375000000003     49.196100000000001     46.945999999999998
H      46.822127890000004     45.398399999999995     46.280899999999988
H      45.651575000000001     47.034599999999998     46.215699999999998
H      48.043664999999997     50.543199999999999     48.739599999999996
H      49.077575000000003     45.617800000000003     47.151600000000002
H      50.435385000000004     49.104799999999997     49.784300000000002
H      50.760624999999997     47.478999999999999     48.510399999999990
