50

C      46.991950000000003     48.948149999999998     45.420549999999984
C      49.481749999999998     47.703350000000007     46.751750000000001
C      48.244250000000001     50.008150000000008     46.962850000000003
C      49.407850000000003     49.117750000000008     47.286850000000001
C      48.249950000000005     51.383050000000004     47.502549999999999
C      50.576150000000005     49.770249999999997     47.984049999999996
C      49.396149999999999     51.991250000000001     47.883250000000004
C      50.564550000000004     51.246950000000005     47.908349999999999
C      49.210450000000002     44.386850000000003     46.576650000000001
C      50.658450000000009     46.786149999999999     46.646149999999992
C      50.075150000000001     44.633250000000004     47.929549999999992
C      50.879049999999999     45.710350000000005     47.578850000000003
C      50.106349999999999     43.862349999999999     49.129350000000002
C      51.670850000000009     46.247850000000007     48.713449999999995
C      51.246249999999996     44.106850000000001     50.053550000000001
C      51.837849999999996     45.427050000000001     49.837850000000003
C      46.834650000000003     49.598750000000003     46.739949999999993
C      47.781849999999999     48.631950000000003     49.882949999999994
C      46.134850000000007     48.843450000000004     47.972949999999997
C      46.304450000000010     48.574550000000009     49.331249999999997
C      45.030850000000008     48.170950000000005     47.315749999999994
C      45.413450000000005     48.000150000000005     50.262549999999990
C      44.077249999999999     47.586950000000009     48.141350000000003
C      44.432449999999996     47.438250000000004     49.475549999999998
H      46.385849999999998     50.605650000000004     46.682949999999991
H      46.339550000000010     47.849150000000002     45.211150000000004
H      48.748049999999999     47.573950000000004     45.985050000000001
H      48.925550000000008     47.385250000000006     47.912849999999992
H      47.662250000000007     52.236849999999997     47.472449999999995
H      51.454650000000008     49.120150000000002     48.353849999999994
H      49.406650000000006     53.099049999999998     47.953149999999994
H      51.544450000000005     51.563650000000003     48.160449999999997
H      48.466250000000009     45.139950000000006     46.069749999999999
H      48.546749999999996     43.503650000000000     46.715549999999993
H      51.451550000000005     47.558550000000004     46.768549999999991
H      50.698749999999997     46.237650000000002     45.622249999999994
H      49.720950000000009     42.900950000000002     48.925150000000002
H      51.727650000000004     47.259350000000005     48.772649999999999
H      51.518149999999999     43.159050000000001     50.633749999999992
H      52.742049999999999     45.654950000000007     50.380949999999999
H      47.736650000000004     48.036550000000005     50.799250000000001
H      46.568149999999996     49.802250000000008     44.744749999999996
H      48.786650000000002     48.557450000000003     49.257849999999991
H      48.129250000000006     49.702350000000003     49.904349999999994
H      44.758950000000006     48.236650000000004     46.160049999999998
H      45.515050000000009     47.865550000000006     51.255250000000004
H      43.257950000000001     46.648050000000005     47.469549999999998
H      43.511950000000006     46.925350000000002     49.820849999999993
H      49.990749999999998     44.289050000000003     45.832049999999995
H      47.928150000000009     48.556550000000009     45.195750000000004
