16

C      46.727549999999987     48.770249999999997     49.970599999999990
C      47.954250000000002     49.325749999999999     49.557199999999995
C      48.363349999999997     48.570150000000005     48.378699999999995
C      48.441649999999996     47.086950000000002     48.446999999999996
C      47.814350000000005     49.237250000000003     47.202699999999993
C      48.892749999999992     46.520150000000001     47.217899999999993
C      47.728350000000006     48.380850000000009     46.074099999999994
C      48.528649999999999     47.230850000000004     46.088699999999996
H      47.973649999999992     46.261550000000000     49.103399999999993
H      46.328050000000005     49.143650000000008     50.936000000000000
H      46.409449999999993     47.871150000000000     49.666699999999999
H      48.675849999999997     50.014849999999996     50.221899999999998
H      47.468350000000001     50.257249999999999     47.144799999999996
H      49.671949999999995     45.742750000000001     47.035299999999992
H      47.352350000000001     48.854850000000013     45.175199999999997
H      48.781549999999996     46.799450000000007     45.064000000000000
