6

C      48.076799999999992     48.269999999999996     47.356849999999994
C      48.172000000000004     47.600909999999999     48.385949999999994
H      48.901499999999992     49.071170000000002     47.132149999999996
H      47.053800000000003     48.206359999999997     46.958449999999999
H      47.338000000000001     46.928829999999998     48.595249999999993
H      48.946199999999997     47.479329999999997     49.041550000000001
