30

C      48.772399999999990     47.802049999999994     47.173199999999987
C      47.513799999999996     47.148850000000003     47.699100000000001
C      48.965499999999999     48.294850000000004     51.783400000000000
C      49.955900000000000     48.249249999999996     47.957099999999997
C      47.592499999999994     46.341250000000002     48.901600000000002
C      49.571700000000000     48.785250000000005     50.591200000000001
C      48.000299999999996     47.446550000000002     51.191299999999998
C      49.460099999999997     48.062750000000001     49.403399999999991
C      48.415999999999997     47.174350000000004     49.796799999999990
C      48.865399999999994     48.230150000000002     45.841699999999989
C      47.715100000000000     48.190650000000005     45.007300000000001
C      46.459599999999995     47.584350000000001     45.365600000000001
C      46.411899999999996     47.102750000000000     46.675699999999992
C      48.027499999999996     48.952650000000013     43.678899999999999
C      50.769499999999987     49.686349999999997     50.975200000000001
C      45.189599999999999     47.442950000000003     44.397199999999998
H      48.561099999999996     48.952650000000013     52.864300000000000
H      47.017899999999997     45.398750000000000     49.257499999999993
H      47.389099999999999     46.699750000000002     51.645799999999994
H      49.921399999999998     48.671450000000000     45.522599999999997
H      49.103299999999997     49.347450000000002     43.553699999999992
H      50.492799999999995     50.601250000000000     50.400799999999990
H      51.707400000000000     49.448250000000009     50.371099999999998
H      51.047300000000000     49.809050000000006     52.074500000000000
H      44.292600000000000     47.314350000000005     44.971099999999993
H      45.602199999999996     47.400650000000006     43.408599999999993
H      45.251999999999995     48.641550000000002     44.425299999999993
H      45.443099999999994     46.905450000000002     47.001199999999997
O      47.133099999999999     49.563550000000006     43.135700000000000
O      50.646299999999989     49.207550000000005     47.720799999999997
