9

C      47.261749999999992     47.000499999999988     48.788299999999992
C      48.340749999999993     47.718300000000013     48.020399999999995
C      48.032750000000000     48.696500000000000     47.371899999999997
H      47.525149999999989     46.480500000000006     49.783299999999997
H      46.801650000000002     46.258099999999999     48.128599999999992
H      46.669350000000001     47.657300000000006     49.392600000000002
H      48.294950000000000     48.810699999999997     46.216700000000003
H      47.450350000000007     49.741900000000001     48.298499999999990
H      49.330649999999999     47.450599999999994     48.418300000000002
