18

C      48.618799999999986     46.943199999999990     45.752449999999989
C      46.221500000000006     48.933500000000002     46.694649999999996
C      48.465400000000002     47.660000000000004     47.100149999999999
C      47.262699999999995     48.290399999999998     47.571649999999991
C      49.604399999999998     47.435299999999991     48.021649999999994
C      46.842900000000000     47.795099999999998     48.848450000000000
C      49.147199999999998     47.358499999999999     49.375949999999996
C      47.844200000000001     47.733200000000004     49.812349999999995
H      49.432599999999994     47.393599999999999     45.270449999999997
H      46.384100000000004     48.192799999999998     45.902149999999992
H      49.064800000000005     45.969900000000003     46.091049999999996
H      45.368600000000001     49.327900000000007     47.379949999999994
H      50.631399999999999     47.495399999999997     47.761349999999993
H      45.871099999999998     47.917200000000001     49.356249999999989
H      50.166600000000003     47.094200000000001     50.038549999999994
H      47.772800000000004     47.693099999999994     50.787250000000000
H      47.810999999999993     46.822699999999998     45.212750000000000
H      46.702600000000004     50.030099999999997     46.353250000000003
