60

C      46.417249999999989     49.959849999999989     49.382999999999988
C      44.250249999999994     52.664349999999999     43.512799999999999
C      44.968049999999998     50.050049999999999     49.121600000000001
C      43.246549999999999     52.200350000000000     44.455100000000002
C      47.294150000000002     50.286349999999999     48.407300000000006
C      45.713749999999997     52.718850000000003     43.600300000000004
C      44.589349999999996     50.844750000000005     47.966499999999996
C      43.768349999999998     51.596649999999997     45.577100000000002
C      48.080449999999999     51.721550000000008     46.414699999999996
C      47.474649999999997     51.945250000000001     45.162900000000008
C      47.044449999999998     51.195350000000005     47.366299999999995
C      46.092849999999999     52.138750000000002     44.834599999999995
C      45.580849999999998     51.472650000000002     47.201700000000002
C      45.045649999999995     51.788049999999998     45.874600000000001
C      43.123249999999999     50.778450000000007     47.621099999999998
C      46.886849999999995     49.098250000000007     50.478300000000004
C      46.033649999999994     48.669550000000001     51.554299999999998
C      44.705649999999999     49.026250000000005     51.403800000000004
C      44.178149999999995     49.574050000000000     50.197599999999994
C      42.717849999999999     49.299949999999995     49.676900000000003
C      42.228349999999999     50.280650000000009     48.713899999999995
C      48.673450000000003     49.546850000000006     48.757800000000003
C      49.957849999999993     49.439149999999998     48.160300000000007
C      48.289649999999995     48.913650000000004     50.125500000000002
C      48.999150000000000     48.141850000000005     51.129599999999996
C      54.076449999999994     46.256749999999997     52.625799999999998
C      53.319850000000002     47.175750000000008     51.934799999999996
C      53.565150000000003     44.649249999999995     49.811700000000002
C      50.442849999999993     48.070450000000008     51.299000000000007
C      52.698349999999991     44.928650000000005     50.747299999999996
C      52.503249999999994     46.367850000000004     51.147099999999995
C      51.853049999999996     43.825450000000004     51.516400000000004
C      51.052250000000001     46.771450000000002     51.247100000000003
C      50.478349999999992     44.430650000000000     51.240400000000008
C      50.083050000000000     45.737250000000003     51.156700000000001
H      44.049249999999994     53.102850000000004     42.529399999999995
H      42.244049999999994     52.316850000000002     44.169300000000007
H      46.459149999999994     53.056449999999998     42.971800000000002
H      49.196150000000003     51.629249999999999     46.602900000000005
H      48.119950000000003     51.837950000000006     44.386499999999998
H      46.593449999999990     48.485349999999997     52.603099999999998
H      44.111849999999997     49.158649999999994     52.399299999999997
H      42.047249999999998     49.318250000000006     50.611300000000000
H      42.428449999999998     48.210650000000001     49.314800000000005
H      41.625149999999998     50.931349999999995     49.589900000000000
H      41.341949999999997     49.944450000000003     48.071799999999996
H      50.117750000000001     49.203450000000004     47.115099999999998
H      48.316549999999992     47.591549999999998     51.927999999999997
H      52.168949999999995     43.699349999999995     52.650000000000006
H      54.658050000000003     46.517350000000008     53.470600000000005
H      54.132249999999999     45.248149999999995     52.217600000000004
H      53.091549999999998     48.225350000000006     52.127700000000004
H      53.748249999999999     43.660950000000000     49.607399999999998
H      54.218049999999991     45.511849999999995     49.156199999999998
H      50.469449999999995     49.788550000000001     49.067599999999999
H      52.119349999999997     42.897149999999996     51.297600000000003
H      48.904849999999996     46.122749999999996     51.213099999999997
H      49.567349999999990     43.777950000000004     51.475600000000000
H      50.734449999999995     49.071050000000000     50.978899999999996
N      42.750849999999993     51.191749999999999     46.488000000000000
