8

C      47.811799999999991     47.706049999999991     48.684849999999997
C      48.311100000000003     48.330950000000009     47.395250000000004
H      46.730399999999996     47.954950000000004     48.917150000000007
H      48.478100000000005     48.120049999999999     49.396249999999995
H      47.709499999999998     46.644150000000003     48.610550000000003
H      48.441099999999999     49.355849999999997     47.546049999999994
H      47.492500000000000     48.127350000000000     46.603750000000005
H      49.269600000000004     47.898050000000005     46.928749999999994
