6

C      48.625799999999998     47.778549999999989     48.044049999999984
C      47.398700000000005     48.208849999999998     47.813950000000006
H      49.089399999999998     46.826949999999997     47.541449999999998
H      49.226100000000002     48.217949999999988     48.805450000000008
H      46.911799999999999     49.173050000000003     48.338149999999999
H      46.773899999999998     47.715849999999996     47.194549999999992
