25

C      46.303349999999995     46.359999999999992     47.633949999999992
C      49.569750000000006     47.855800000000002     45.361549999999994
C      47.675249999999998     46.572399999999995     47.281149999999997
C      49.267050000000005     48.489599999999996     46.768349999999998
C      48.429150000000000     47.833199999999991     47.732649999999992
C      50.344650000000009     49.246799999999993     47.384749999999997
C      48.042750000000005     48.450999999999993     48.982349999999997
C      49.961450000000006     49.937700000000007     48.643949999999997
C      48.904350000000001     49.555899999999994     49.450749999999999
C      45.875250000000001     46.067499999999995     50.345349999999996
C      46.533250000000002     45.805299999999995     49.166049999999998
H      45.860650000000000     45.414499999999997     47.303849999999997
H      45.549750000000003     47.290399999999998     47.373149999999995
H      50.491450000000007     47.188299999999998     45.006450000000001
H      48.652549999999998     47.286399999999993     44.782849999999996
H      47.756850000000007     46.375999999999998     46.173349999999999
H      48.147449999999999     45.806899999999999     47.434749999999994
H      51.125949999999996     49.759299999999996     46.879149999999996
H      47.428150000000009     47.771899999999995     49.655850000000001
H      50.487950000000005     50.916100000000000     48.914050000000003
H      48.692150000000005     50.081699999999998     50.483549999999994
H      44.874050000000004     46.753599999999999     50.628850000000000
H      46.616750000000003     45.939599999999999     51.235050000000001
H      47.303650000000012     45.083900000000000     49.425150000000002
H      49.807549999999999     48.689300000000003     44.764949999999999
