20

C      49.123399999999990     50.423249999999996     50.743949999999991
C      47.251599999999996     45.543949999999995     47.672950000000000
C      48.893200000000000     49.813850000000002     49.618350000000000
C      48.092799999999997     46.839550000000003     47.200749999999999
C      48.553199999999997     48.927250000000001     48.564750000000004
C      48.247999999999998     47.470450000000000     48.394549999999995
C      48.865400000000001     49.654150000000001     47.337649999999996
C      48.121400000000001     47.754350000000002     45.937650000000005
C      48.244199999999999     50.137950000000004     46.144250000000000
C      47.804899999999996     49.060550000000006     45.359549999999999
H      46.195900000000002     45.927650000000000     47.612949999999998
H      49.804099999999998     50.302250000000001     51.540350000000004
H      47.291899999999998     45.372950000000003     48.861550000000001
H      47.546599999999998     44.822850000000003     47.045249999999996
H      48.131599999999999     51.006249999999994     51.203050000000005
H      47.838000000000001     47.008550000000000     49.302050000000001
H      49.130299999999998     50.632149999999996     47.666350000000001
H      48.161600000000000     46.798050000000003     45.393749999999997
H      48.110899999999994     51.177149999999997     45.897149999999996
H      47.072799999999994     49.221950000000007     44.459649999999996
