17

C      49.298949999999998     49.043999999999997     49.309949999999994
C      50.329850000000008     48.478700000000003     48.481949999999998
C      49.840050000000005     47.535300000000007     47.282449999999997
C      48.152349999999998     48.217700000000008     48.858750000000001
C      48.439750000000004     47.598600000000005     47.447649999999996
C      46.875450000000001     48.272500000000008     49.412149999999997
C      47.608950000000007     46.886800000000008     46.901849999999996
C      46.041350000000008     47.475900000000010     48.545450000000002
C      46.239750000000001     47.197900000000004     47.259150000000005
H      49.155850000000001     49.763499999999993     50.028149999999997
H      51.084649999999996     49.245300000000000     48.575350000000000
H      50.145550000000000     48.237499999999997     46.466750000000005
H      50.294350000000009     46.507800000000003     47.154949999999999
H      46.592849999999999     49.113799999999998     49.952749999999995
H      47.777550000000005     46.236500000000007     45.971850000000003
H      44.915350000000004     47.538100000000000     48.885249999999999
H      45.282650000000004     46.972099999999998     46.723650000000006
