62

C      45.699749999999987     47.131499999999996     47.064349999999997
C      48.884450000000001     49.663300000000007     52.199850000000012
C      46.320250000000001     46.018900000000002     47.750550000000004
C      49.136849999999995     48.177199999999999     52.036450000000002
C      45.609250000000003     48.521700000000003     47.406750000000002
C      48.231650000000002     50.396400000000000     51.160750000000007
C      47.880049999999997     45.342799999999997     49.572250000000011
C      48.621249999999989     46.032100000000000     50.710750000000004
C      45.871449999999996     49.998099999999994     49.685550000000006
C      47.144149999999996     46.370800000000003     48.805850000000007
C      48.316149999999993     47.448899999999995     51.024850000000001
C      45.909250000000000     48.727200000000003     48.815250000000006
C      47.115150000000000     49.671400000000006     50.588350000000005
C      46.587149999999994     47.629199999999997     49.362250000000003
C      47.266849999999991     48.224699999999999     50.551349999999999
C      45.255650000000003     46.755099999999999     45.763050000000007
C      45.038550000000001     45.356499999999997     45.274250000000002
C      45.433049999999994     44.267499999999998     46.137950000000004
C      46.146649999999994     44.528400000000005     47.303250000000006
C      47.041449999999998     43.692000000000000     48.090050000000005
C      47.860849999999999     44.024300000000004     49.191750000000006
C      49.923149999999993     50.286100000000005     52.958150000000003
C      51.198650000000001     49.770899999999997     53.387350000000005
C      51.223849999999999     48.434300000000000     52.991450000000000
C      50.313749999999999     47.520899999999997     52.411950000000004
C      50.600149999999999     46.115300000000005     52.015550000000005
C      49.747749999999996     45.378000000000000     51.314049999999995
C      48.883949999999999     43.197000000000003     50.142350000000008
C      50.182749999999999     43.914800000000000     50.602950000000007
C      45.095649999999992     47.871099999999998     44.963950000000004
C      44.717950000000002     47.421999999999997     43.549950000000003
C      45.009649999999993     46.114400000000003     43.108250000000005
C      44.492949999999993     45.072600000000001     43.964950000000002
C      45.077050000000000     49.571799999999996     46.528150000000004
C      45.092950000000002     49.359499999999997     45.159850000000006
C      48.214550000000003     51.862400000000008     50.825550000000007
C      49.431449999999998     52.536799999999999     51.556950000000001
C      49.698949999999996     51.852699999999999     52.882850000000005
H      46.136949999999999     50.875700000000002     49.177350000000004
H      45.028449999999992     50.052700000000002     50.323550000000012
H      46.872850000000000     42.796599999999998     47.603150000000007
H      51.917649999999995     50.336300000000001     54.013649999999998
H      52.286850000000001     48.238000000000000     53.494850000000000
H      51.496349999999993     45.785899999999998     52.487250000000003
H      50.684649999999991     44.259399999999999     49.703550000000007
H      50.662049999999994     43.463999999999999     51.321950000000001
H      44.771050000000002     45.768500000000003     41.986350000000002
H      44.321050000000000     44.065500000000000     43.539950000000005
H      44.735849999999999     50.522000000000006     47.009450000000001
H      44.746650000000002     50.066000000000003     44.446550000000002
H      43.713149999999999     48.908000000000001     43.090150000000008
H      48.030649999999994     52.048699999999997     49.756750000000004
H      47.280949999999990     52.431500000000000     51.022950000000002
H      50.063449999999989     52.239300000000000     50.632350000000002
H      49.337549999999993     53.652299999999997     51.644450000000006
H      50.469949999999997     52.688900000000004     53.622150000000005
H      48.821050000000000     52.387400000000000     53.593050000000005
H      45.641049999999993     43.173500000000004     44.689150000000005
H      48.303749999999994     42.980300000000000     51.032350000000008
H      49.218350000000001     42.347700000000003     49.437350000000009
O      45.209850000000003     43.059100000000001     45.578450000000004
O      44.091349999999991     48.097800000000007     42.583550000000002
