34

C      47.698749999999997     47.539799999999993     50.273999999999987
C      50.985749999999996     47.975999999999999     47.019299999999994
C      49.015749999999997     47.555199999999999     49.981800000000000
C      46.592150000000004     47.339200000000005     49.284699999999994
C      50.629149999999996     47.551900000000003     48.279499999999999
C      46.083449999999999     48.546199999999999     47.054299999999998
C      50.132249999999999     48.515600000000006     45.918599999999998
C      47.591850000000008     49.195599999999999     45.481999999999999
C      49.213949999999997     47.681500000000000     48.483999999999995
C      46.927750000000003     48.052599999999998     48.061699999999995
C      48.738150000000005     48.597300000000004     46.260500000000000
C      48.306650000000005     48.330500000000001     47.538199999999996
C      50.224249999999998     47.724800000000002     50.964300000000001
C      45.255350000000007     47.308999999999997     49.773199999999996
C      44.313050000000004     47.679500000000004     48.890299999999996
C      44.693550000000002     48.174099999999996     47.547300000000000
C      52.501950000000008     47.816000000000003     46.742500000000000
C      50.569649999999996     48.341200000000001     44.563099999999999
H      52.837249999999997     46.960899999999995     46.339499999999994
H      47.761350000000007     49.715900000000005     44.459599999999995
H      50.744650000000007     48.559399999999997     50.352799999999995
H      50.802250000000001     46.820000000000000     50.785299999999999
H      49.905649999999994     48.139899999999997     52.030700000000003
H      45.080449999999999     46.867400000000004     50.608199999999989
H      48.576149999999998     46.284099999999995     52.328200000000002
H      43.162750000000003     47.629500000000007     49.230599999999995
H      43.863550000000004     48.516800000000003     46.985499999999995
H      52.831450000000004     48.649500000000003     46.138700000000000
H      52.742149999999995     47.813100000000006     47.694599999999994
H      49.997650000000007     48.547600000000003     43.671799999999998
H      51.544250000000005     48.297100000000000     44.243399999999994
H      51.023750000000007     46.816400000000002     48.802499999999995
N      46.373549999999994     49.085499999999996     45.833700000000000
S      47.298749999999998     47.215400000000002     52.035499999999992
