21

C      50.531749999999995     49.219019999999986     48.050699999999992
C      50.347250000000003     50.376759999999990     47.933100000000003
C      49.646850000000001     48.156309999999991     49.003500000000010
C      48.981949999999998     45.844129999999993     47.307400000000001
C      48.357249999999993     48.079229999999995     48.280600000000000
C      48.103449999999995     46.826369999999997     47.316499999999998
C      47.361549999999994     49.042879999999997     48.448999999999991
C      46.823750000000004     46.886150000000001     46.706000000000003
C      46.105350000000001     48.799239999999998     47.788800000000002
C      45.727549999999994     47.698849999999993     47.020699999999998
H      50.799149999999997     48.590989999999991     47.300400000000003
H      49.459050000000005     50.931160000000006     48.212000000000003
H      49.609350000000006     48.715319999999991     49.953899999999997
H      50.256550000000004     47.209609999999998     49.230100000000000
H      49.912949999999995     45.909989999999993     47.720900000000000
H      48.854249999999993     45.068839999999994     46.636099999999999
H      47.554349999999999     49.889710000000008     49.020599999999995
H      46.248249999999999     46.087580000000003     46.046100000000003
H      45.319850000000002     49.600449999999995     48.011699999999998
H      44.649749999999997     47.720900000000000     46.639499999999998
H      51.350250000000003     50.925420000000003     47.637700000000002
