5

C      48.064549999999997     47.890849999999993     47.763449999999992
H      48.881850000000000     47.183549999999997     47.416750000000008
H      47.916249999999998     48.293949999999995     48.747450000000001
H      47.118150000000000     47.405349999999999     47.627850000000009
H      48.318949999999994     48.816450000000003     47.252549999999999
