5

C      48.470249999999993     48.226599999999998     48.219949999999997
C      47.580750000000002     47.606999999999999     48.803249999999998
H      48.535150000000002     48.601399999999998     47.196750000000002
H      49.489049999999999     48.086500000000001     48.584049999999998
H      46.510950000000001     47.398600000000002     48.424450000000000
