16

C      49.220299999999980     46.060749999999992     48.555549999999990
C      47.564899999999994     47.566950000000006     50.233249999999998
C      48.779499999999999     47.367549999999994     48.088849999999994
C      47.634099999999989     47.977549999999994     48.874150000000000
C      49.247799999999998     48.107349999999997     46.941350000000000
C      46.686899999999994     49.029449999999997     48.523849999999996
C      48.261399999999995     48.957449999999994     46.446749999999994
C      47.147700000000000     49.502750000000006     47.371649999999995
H      48.484799999999993     45.576949999999997     49.164249999999996
H      50.308000000000007     45.814049999999995     48.295249999999996
H      46.786299999999997     48.190950000000001     50.664050000000003
H      47.834099999999992     46.448149999999998     50.524549999999991
H      50.077699999999993     47.854550000000003     46.384649999999993
H      45.691999999999993     49.126249999999999     49.045949999999991
H      48.458399999999997     49.027450000000002     45.335949999999997
H      46.681399999999996     50.423050000000003     46.939449999999994
