27

C      50.119099999999989     46.373649999999991     49.657199999999989
C      46.235499999999995     48.342349999999996     48.232199999999992
C      47.508699999999997     47.729550000000003     47.954399999999993
C      49.497300000000003     47.821849999999998     49.854599999999998
C      48.659600000000005     48.504449999999991     47.422199999999997
C      49.683600000000006     48.454949999999997     48.466499999999996
C      48.808200000000006     49.532150000000001     46.418899999999994
C      51.032599999999995     48.780450000000002     48.213199999999993
C      50.187999999999995     49.608350000000002     46.100799999999992
C      51.306599999999996     49.228650000000002     46.883299999999991
C      44.144200000000005     48.123049999999992     49.187099999999994
C      45.514000000000003     47.377650000000003     48.933199999999992
H      49.031600000000005     45.727850000000004     49.381499999999996
H      50.456600000000002     46.198750000000004     48.629199999999997
H      50.719199999999994     45.889150000000001     50.425000000000004
H      43.939199999999992     48.477249999999998     48.194999999999993
H      46.319899999999997     49.396749999999997     48.070399999999992
H      47.828899999999997     46.847149999999999     48.583999999999996
H      48.555299999999995     48.037049999999994     50.368699999999997
H      50.240500000000004     48.349949999999993     50.675400000000003
H      48.347199999999994     50.156350000000003     45.821299999999994
H      51.784699999999994     48.876049999999992     48.945099999999996
H      50.639100000000006     50.272149999999996     45.324599999999997
H      52.345099999999995     49.225149999999999     46.447499999999998
H      43.654900000000005     47.655349999999999     49.975500000000004
H      45.652499999999996     46.359650000000002     48.996999999999993
H      44.899899999999995     49.048649999999995     49.207999999999991
