6

C      47.690049999999999     48.087449999999997     48.638849999999998
C      48.450749999999999     48.273949999999999     47.591550000000005
H      46.818650000000005     48.696449999999999     48.835050000000010
H      47.988950000000003     47.303550000000001     49.282349999999994
H      48.191249999999997     48.660850000000003     46.717650000000006
H      49.181349999999995     47.609050000000003     47.545750000000005
