17

C      47.628699999999988     45.954899999999995     48.495949999999993
C      48.231899999999996     48.050999999999995     50.493650000000002
C      47.999899999999997     47.268200000000000     48.066850000000002
C      48.001799999999996     48.414499999999997     49.023949999999999
C      47.913499999999999     47.275399999999998     46.583849999999998
C      47.380099999999999     49.542399999999994     48.575950000000006
C      47.827900000000000     48.646799999999992     46.094650000000001
C      47.419899999999998     49.589099999999995     47.156950000000009
H      47.235799999999998     45.528500000000001     49.336750000000009
H      47.663599999999988     45.581800000000001     47.467650000000006
H      48.860100000000003     48.767100000000006     50.868449999999996
H      47.270299999999999     48.032500000000006     50.949249999999992
H      48.325900000000004     46.583099999999995     45.808350000000004
H      47.202700000000000     50.285599999999995     49.261750000000006
H      47.803100000000001     49.129399999999997     45.050750000000008
H      47.139899999999997     50.471499999999999     46.813050000000004
H      48.718800000000002     47.021999999999998     50.457950000000011
