22

C      45.396899999999995     48.293799999999990     46.440249999999992
C      50.751300000000001     49.232450000000014     46.743250000000003
C      46.586500000000001     48.450820000000007     46.098050000000001
C      49.422499999999999     49.129950000000008     46.227249999999998
C      47.504300000000001     47.776650000000004     47.127150000000000
C      48.916300000000007     48.004300000000001     47.203649999999996
C      46.899100000000004     47.049570000000003     48.217449999999999
C      49.405000000000001     48.034790000000001     48.512249999999995
C      47.687200000000004     46.491870000000006     49.182449999999989
C      48.708600000000004     47.383580000000009     49.672150000000002
H      51.114300000000000     48.046880000000002     46.783149999999992
H      44.593800000000002     48.829050000000009     45.748850000000004
H      45.215299999999999     47.204499999999996     46.899450000000002
H      50.718800000000002     49.972150000000013     47.649249999999995
H      51.406199999999998     49.861850000000004     46.163749999999993
H      47.047899999999998     49.042650000000009     45.370350000000002
H      48.748300000000000     50.032650000000004     46.088149999999999
H      49.567000000000007     48.326510000000013     45.283050000000003
H      45.900800000000004     46.684590000000000     48.317149999999998
H      50.432600000000008     47.992270000000005     48.829750000000004
H      47.251400000000004     45.967349999999996     50.162750000000003
H      49.308499999999995     47.372749999999996     50.716949999999997
