58

C      45.838549999999991     50.731289999999987     49.356539999999995
C      49.438549999999992     53.650499999999994     50.993639999999999
C      50.446150000000003     53.233599999999996     51.886639999999986
C      48.986849999999990     49.492619999999988     53.125439999999998
C      50.370649999999998     51.908719999999988     52.290539999999993
C      48.419649999999990     50.320959999999985     51.965840000000000
C      49.247149999999991     51.352399999999989     51.552539999999993
C      47.253850000000000     49.824429999999992     51.167940000000002
C      48.589349999999996     52.623569999999987     50.983040000000003
C      46.944949999999992     50.987409999999983     50.393540000000002
C      47.377349999999993     52.325539999999990     50.340539999999990
C      46.155649999999994     44.558989999999994     46.943089999999998
C      46.551749999999998     44.920089999999988     48.157659999999993
C      46.015950000000004     49.098499999999987     45.775210000000001
C      46.688649999999996     49.511199999999988     46.936139999999995
C      46.414949999999990     45.470309999999998     45.803550000000001
C      47.356150000000000     46.079569999999990     48.211939999999998
C      47.590049999999991     48.552119999999988     47.395609999999991
C      46.472049999999996     46.907389999999992     46.124589999999998
C      47.359949999999998     47.138859999999994     47.240549999999999
C      45.669150000000002     43.149026999999990     46.837710000000001
C      45.611649999999997     42.291199999999989     47.907049999999998
C      45.722250000000003     42.823700000000002     49.307040000000001
C      46.311549999999997     44.020199999999988     49.294339999999991
C      46.436650000000000     44.869579999999985     44.455919999999992
C      46.490949999999998     43.428506999999996     44.219039999999993
C      45.966149999999999     42.597499999999997     43.155149999999992
C      46.009349999999998     45.807389999999998     43.458910000000003
C      46.650949999999995     47.201709999999991     43.066229999999990
C      46.321050000000000     50.730739999999997     47.980260000000001
H      44.923249999999996     51.454309999999992     49.348540000000000
H      45.224049999999991     49.757449999999992     49.841239999999999
H      48.812349999999995     48.357029999999995     53.244639999999990
H      49.648349999999994     54.618799999999993     50.481139999999996
H      51.130049999999997     54.242699999999985     52.564439999999991
H      50.077950000000001     48.882099999999994     52.685439999999986
H      49.050649999999990     50.076799999999992     53.935339999999997
H      50.684150000000002     51.694019999999995     53.509339999999995
H      46.567449999999994     49.236019999999996     51.840639999999993
H      46.962750000000000     53.088799999999992     49.436139999999995
H      45.512349999999998     49.737439999999992     44.879059999999996
H      47.958349999999996     46.029939999999996     49.041539999999998
H      48.340049999999991     49.052859999999995     48.108719999999991
H      45.008250000000004     41.381200000000007     47.746380000000002
H      45.687749999999994     42.252799999999993     50.328339999999997
H      46.649349999999998     44.152319999999989     50.254539999999992
H      45.132149999999996     42.689199999999985     46.000579999999999
H      47.016449999999992     43.270394999999994     45.121650000000002
H      45.506950000000003     43.000118999999998     42.184820000000002
H      45.644350000000003     41.555399999999992     43.557229999999990
H      44.869950000000003     45.777059999999992     43.436989999999994
H      46.271249999999995     45.175919999999991     42.520139999999998
H      46.267650000000003     48.102329999999995     43.344030000000004
H      47.996049999999997     47.077489999999997     43.009529999999998
H      46.531049999999993     47.395049999999998     42.064660000000003
H      45.693649999999991     51.572319999999991     47.416199999999989
H      47.323349999999991     51.307139999999990     48.045169999999999
N      45.843249999999998     47.811259999999990     45.423090000000002
