22

C      49.512969999999996     49.322699999999990     49.253729999999990
C      48.053410000000000     49.909099999999995     49.380330000000001
C      49.555939999999993     47.752499999999998     48.896329999999999
C      47.335539999999995     49.958799999999997     48.095330000000004
C      48.582840000000004     47.635199999999998     47.797310000000003
C      47.871569999999991     48.729199999999992     47.297800000000002
C      48.311030000000002     46.246099999999998     47.393030000000003
C      46.850030000000004     48.283999999999992     46.348750000000003
C      47.246709999999993     46.084199999999996     46.567709999999998
C      46.336569999999995     46.967299999999994     45.939390000000003
H      50.024400000000000     49.590699999999998     50.152600000000000
H      49.854789999999994     49.708500000000001     48.291530000000002
H      47.658990000000003     49.462599999999995     50.180000000000000
H      48.028329999999997     51.030500000000004     49.977899999999998
H      49.422619999999995     47.166100000000000     49.730100000000000
H      50.635819999999995     47.567399999999992     48.739670000000004
H      47.808930000000004     50.731600000000000     47.316630000000004
H      46.376670000000004     49.893000000000001     48.145200000000003
H      48.683689999999999     45.251499999999993     47.687040000000003
H      46.214929999999995     49.296999999999997     46.131610000000002
H      46.984279999999998     44.969499999999996     46.333109999999998
H      45.364180000000005     46.418999999999997     45.820000000000000
