30

C      46.485949999999988     46.295049999999989     48.461750000000002
C      48.998850000000004     46.643749999999997     47.765450000000001
C      47.748550000000009     45.962050000000005     47.696550000000002
C      49.932550000000006     46.336550000000003     46.645049999999998
C      47.825250000000011     44.762550000000005     46.828649999999996
C      49.639550000000000     45.547349999999994     45.510450000000006
C      48.759950000000003     44.417349999999999     45.645350000000008
C      49.432749999999999     47.981650000000002     48.172750000000008
C      49.950850000000003     50.125950000000003     50.374750000000006
C      48.628050000000002     48.972149999999999     48.760550000000009
C      48.774649999999994     50.318250000000006     49.393050000000002
C      47.204650000000001     48.973349999999996     48.458650000000006
C      48.016750000000002     51.411050000000003     48.995150000000010
C      46.199950000000001     49.981449999999995     48.868850000000009
C      46.629249999999999     51.318750000000009     48.574050000000000
H      46.243650000000002     45.292050000000003     48.874650000000003
H      46.653549999999996     47.035449999999997     49.077849999999998
H      50.952050000000000     46.879850000000005     46.730050000000006
H      47.436250000000001     43.675349999999995     47.035049999999998
H      50.279250000000005     45.576049999999995     44.646050000000002
H      48.699050000000000     43.878550000000004     44.740850000000009
H      50.538650000000004     48.325250000000011     48.469149999999999
H      49.619350000000011     49.415650000000014     51.353949999999998
H      50.634349999999998     49.433850000000007     49.962249999999997
H      50.518050000000002     50.811850000000007     50.817549999999997
H      46.967650000000006     47.916950000000014     48.217849999999999
H      48.522450000000006     52.324650000000005     49.325350000000000
H      45.047950000000000     49.879450000000006     49.186149999999998
H      45.949650000000005     52.170450000000002     48.695549999999997
H      45.953050000000005     46.915750000000003     47.696950000000001
