20

C      48.324549999999988     49.443099999999987     46.658949999999990
C      46.608049999999999     50.069600000000008     50.263450000000006
C      46.615349999999999     49.936599999999999     48.989649999999997
C      49.490550000000006     48.661900000000003     46.948250000000002
C      46.723949999999995     48.682199999999995     48.436949999999996
C      47.039949999999997     48.828500000000005     46.933350000000004
C      46.352150000000002     47.371799999999993     48.710250000000002
C      46.547249999999998     47.802999999999997     45.999749999999992
C      46.390850000000000     46.207599999999999     47.885850000000005
C      46.399149999999999     46.468500000000006     46.455349999999996
H      47.040149999999997     48.079999999999998     44.999849999999995
H      49.373650000000005     48.009500000000003     47.837149999999994
H      46.617249999999999     49.154200000000003     50.892250000000004
H      46.554850000000002     50.834599999999995     51.000150000000005
H      50.130749999999999     48.223200000000006     46.058849999999993
H      46.339250000000000     50.903000000000006     48.461749999999995
H      48.619450000000001     49.568600000000004     45.589249999999993
H      45.869250000000001     47.066699999999997     49.659649999999999
H      46.466549999999998     45.096999999999994     48.156449999999992
H      46.269950000000001     45.465800000000002     45.883849999999995
