5

C      47.992799999999988     48.071899999999992     48.200749999999999
H      48.096699999999991     48.480800000000002     47.175849999999997
H      48.872300000000003     47.853499999999997     48.824150000000003
H      47.127699999999997     48.774000000000001     48.417649999999995
H      47.388699999999993     47.225999999999999     48.735550000000003
