41

C      49.147849999999991     47.189149999999991     45.192519999999988
C      47.169650000000004     48.436149999999998     47.969319999999996
C      47.910049999999998     48.463449999999995     46.723919999999993
C      47.116050000000001     43.806849999999997     47.508519999999990
C      46.815849999999998     47.148349999999994     48.871419999999986
C      47.956249999999997     47.149649999999994     46.087619999999987
C      47.300849999999997     44.533449999999995     48.697119999999998
C      47.520550000000000     44.681549999999994     46.381019999999992
C      47.067950000000010     45.969949999999997     48.220219999999998
C      47.274150000000006     45.981449999999995     46.728619999999992
C      46.900550000000010     49.626549999999995     48.628919999999994
C      47.168650000000000     50.942449999999994     48.079319999999996
C      47.939549999999997     51.076949999999997     46.826619999999991
C      48.528050000000007     49.790149999999997     46.311019999999999
C      46.324150000000003     49.549549999999996     49.903156000000010
C      45.814750000000004     50.672950000000000     50.643380000000008
C      46.186050000000009     51.934749999999994     50.216830000000002
C      46.981050000000010     52.026849999999996     48.978420000000000
C      46.748249999999999     48.461849999999998     50.802750000000003
C      46.558650000000000     47.180149999999998     50.170040000000000
C      48.416650000000004     52.244850000000000     46.357419999999991
C      49.527250000000009     52.289749999999998     45.544419999999988
C      50.097650000000002     51.067749999999990     44.912719999999993
C      49.334950000000006     49.794049999999991     45.214419999999990
C      47.865050000000011     44.307049999999997     44.970019999999991
H      50.130850000000009     46.933649999999993     45.569219999999987
H      48.964550000000003     46.682349999999992     44.133319999999998
H      47.285750000000007     42.708349999999996     47.601819999999989
H      48.880549999999999     44.734049999999996     44.662619999999990
H      47.383550000000000     43.927949999999996     49.686525000000003
H      45.252650000000003     50.561649999999986     51.605870000000010
H      46.048150000000007     52.922649999999997     50.582160000000002
H      47.486750000000001     52.934349999999995     49.037444300000004
H      46.990350000000007     48.513949999999994     51.921280000000010
H      46.473250000000007     46.280949999999997     50.847349999999992
H      47.882150000000010     53.099249999999998     46.859719999999996
H      50.086750000000009     53.291650000000004     45.296719999999993
H      50.747349999999997     51.292050000000003     44.078719999999990
H      48.009349999999998     43.241649999999993     44.669519999999991
H      46.916049999999998     44.216049999999996     44.226419999999990
O      49.538050000000013     48.642049999999998     44.605019999999996
