17

C      48.393199999999993     47.709192999999985     45.536850000000001
C      50.384500000000003     48.506549999999990     48.416349999999994
C      48.103600000000000     47.799135999999990     46.991550000000004
C      49.019500000000008     47.945466999999994     48.137950000000004
C      46.726799999999997     47.562198999999993     47.371549999999999
C      48.468500000000006     47.563006999999999     49.433750000000003
C      46.198200000000000     47.863921000000005     48.719349999999991
C      47.183400000000006     47.599355999999986     49.787350000000004
H      50.021300000000011     49.388849999999991     48.892650000000003
H      48.399000000000001     46.611150000000009     45.491450000000000
H      49.258300000000006     48.170948999999993     45.133350000000007
H      47.536799999999999     48.357089999999999     45.247150000000005
H      50.999200000000002     47.994517000000002     49.010149999999996
H      46.102800000000002     47.547316999999993     46.506950000000003
H      49.071800000000010     47.302819999999997     50.320949999999996
H      45.000799999999998     47.845790999999991     48.917649999999995
H      46.746700000000004     47.111349999999987     50.866649999999993
