22

C      50.446249999999992     47.101099999999988     48.047399999999996
C      49.422250000000005     45.936500000000002     48.506600000000006
C      49.907049999999998     48.532399999999996     47.924400000000006
C      48.293350000000004     46.622299999999996     49.058899999999994
C      48.502150000000000     48.454299999999996     47.240099999999998
C      47.569850000000002     47.686799999999998     48.068299999999994
C      48.170050000000003     49.510599999999990     46.283400000000000
C      46.300749999999994     48.069300000000005     47.804500000000004
C      46.755150000000000     49.900100000000002     46.495400000000004
C      45.836150000000004     49.086199999999998     46.975999999999999
H      50.905050000000003     46.887499999999996     47.080299999999994
H      51.138949999999994     46.951900000000002     48.929100000000005
H      49.160849999999996     45.180500000000002     47.702600000000004
H      49.916550000000001     45.271599999999999     49.368300000000005
H      50.645250000000004     49.096100000000000     47.330200000000005
H      49.573750000000004     48.986499999999999     48.801399999999987
H      48.565650000000005     47.280700000000003     49.963099999999997
H      47.395449999999997     45.896499999999996     49.108100000000007
H      48.983450000000005     50.142899999999997     46.117800000000003
H      45.591350000000006     47.628200000000000     48.244399999999999
H      46.891649999999998     50.819499999999998     46.036900000000003
H      44.861050000000006     49.406200000000005     46.642600000000002
