5

C      47.818699999999993     48.083099999999988     47.880499999999998
H      47.164699999999996     48.757899999999999     47.061000000000000
H      47.051400000000001     47.242100000000001     47.792700000000004
H      47.937399999999997     48.526799999999987     48.939000000000000
H      48.948599999999999     47.952999999999996     47.506900000000009
