6

C      47.419649999999997     48.478049999999982     48.221049999999991
C      48.334249999999997     47.602749999999993     47.987349999999992
H      47.329850000000008     49.489550000000001     47.729649999999992
H      46.615150000000000     48.106450000000002     48.690849999999998
H      49.384850000000000     47.675750000000001     47.309150000000002
H      48.083150000000003     46.510449999999999     48.425749999999994
