6

C      47.375049999999995     48.112099999999998     48.196699999999986
C      48.642350000000008     48.670599999999993     48.042000000000002
H      47.378450000000001     47.137299999999996     48.841600000000000
H      46.571950000000001     47.752300000000005     47.446100000000001
H      49.428049999999999     48.862700000000004     48.868300000000005
H      49.252849999999995     48.343800000000002     47.131699999999995
