6

C      47.783649999999994     48.097049999999996     47.414749999999984
C      48.168249999999993     47.656950000000002     48.646950000000004
H      48.391950000000001     47.737650000000002     46.555049999999994
H      46.781450000000000     48.671950000000002     47.404550000000000
H      49.218550000000000     47.328049999999998     48.836550000000003
H      47.401050000000005     47.714750000000002     49.444950000000006
