36

C      48.187199999999990     47.700549999999993     48.119949999999996
C      46.730100000000007     48.185549999999999     47.939149999999998
C      49.356499999999997     47.899849999999994     48.914950000000005
C      49.168200000000013     45.161450000000002     48.259649999999993
C      50.521200000000007     47.043450000000000     48.587649999999996
C      50.580200000000005     45.646050000000002     48.338149999999999
C      51.780600000000007     47.861649999999997     48.459550000000007
C      51.778599999999997     44.933950000000003     47.975149999999999
C      52.879099999999994     47.139650000000003     48.047449999999998
C      52.925800000000010     45.759850000000000     47.689650000000000
C      45.226399999999998     49.610849999999999     49.896050000000002
C      46.239300000000000     49.084850000000010     46.997050000000002
C      44.598100000000002     50.165649999999999     48.572850000000003
C      45.141800000000003     50.057449999999996     47.355350000000001
C      43.308499999999995     50.812150000000010     48.807950000000005
C      44.880899999999997     51.092549999999996     46.283349999999999
C      42.998199999999997     51.397550000000003     47.681150000000002
C      43.653800000000004     51.622450000000008     46.349149999999995
H      47.904499999999999     47.155949999999997     46.857349999999997
H      47.057000000000002     49.439050000000002     46.300749999999994
H      46.264099999999999     47.823050000000002     48.876750000000001
H      49.149600000000007     44.153550000000003     48.521450000000002
H      49.435000000000002     48.739749999999994     49.672150000000002
H      48.347099999999998     45.650550000000003     48.839550000000003
H      48.894500000000008     45.048850000000002     47.052549999999997
H      51.789500000000004     49.021850000000008     48.847049999999996
H      51.644999999999996     43.910350000000001     47.599050000000005
H      53.870900000000006     47.559449999999998     47.898550000000000
H      53.510300000000015     45.456350000000000     46.798349999999999
H      46.161699999999996     49.861950000000000     50.123949999999994
H      44.580200000000005     49.604550000000003     50.745750000000001
H      45.764099999999999     49.076149999999991     49.059349999999995
H      42.692899999999995     50.836750000000002     49.703050000000005
H      45.460899999999995     51.008350000000000     45.254249999999999
H      42.129099999999994     51.953550000000000     47.482849999999999
H      43.443300000000008     52.089649999999999     45.334050000000005
