9

C      48.257199999999997     48.937857499999993     48.606249999999989
C      47.593300000000006     47.670257500000005     48.100349999999999
C      47.848600000000005     47.136787499999997     46.815350000000002
H      47.759000000000007     49.983267499999997     48.089350000000003
H      49.330999999999996     48.910917499999996     48.142749999999999
H      48.466400000000014     49.154547499999993     49.882349999999995
H      46.669000000000004     47.106957499999993     48.733049999999999
H      48.655100000000012     47.532557499999996     46.117650000000005
H      47.502200000000009     46.016732500000003     47.076749999999997
