17

C      47.091399999999993     48.132149999999996     45.541949999999993
C      49.269500000000001     46.356650000000009     47.462249999999997
C      47.488899999999994     48.113750000000003     47.059550000000002
C      48.192399999999999     47.317650000000008     47.932950000000005
C      46.847000000000001     49.267950000000006     47.699849999999998
C      48.214099999999995     47.474250000000005     49.327350000000010
C      46.616700000000002     49.161250000000003     49.095650000000006
C      47.466900000000003     48.465449999999997     49.981850000000009
H      47.254699999999993     49.155149999999999     44.899850000000001
H      47.341000000000001     47.057549999999999     44.906750000000002
H      45.975800000000000     48.031349999999996     45.631250000000009
H      50.026299999999999     45.842649999999999     47.965150000000008
H      49.564600000000006     46.872750000000003     46.453450000000004
H      46.120899999999999     50.000750000000004     47.520850000000010
H      49.036700000000003     46.974650000000004     49.935950000000005
H      45.973700000000001     50.157350000000001     49.194749999999999
H      47.575600000000001     48.464649999999999     51.100149999999999
