35

C      48.818700000000000     50.124549999999999     46.858999999999988
C      48.051500000000004     48.169250000000005     49.311999999999998
C      48.453000000000003     50.477350000000001     48.286299999999997
C      47.813200000000009     49.698450000000008     49.306999999999988
C      48.502100000000006     51.801849999999988     48.807599999999994
C      47.396000000000001     50.070549999999997     50.699699999999993
C      47.565400000000004     52.211950000000002     49.727999999999994
C      46.837300000000006     51.337049999999991     50.585799999999992
C      47.607800000000005     44.257249999999999     48.812799999999996
C      46.933600000000006     47.300650000000005     48.945499999999996
C      47.705700000000007     45.083349999999996     47.622999999999990
C      47.099500000000006     46.493350000000007     47.687399999999997
C      48.445300000000003     44.764150000000001     46.497799999999998
C      46.972800000000007     46.857650000000007     46.410699999999991
C      48.658000000000001     45.542649999999995     45.315399999999997
C      47.839500000000001     46.712350000000001     45.221599999999995
H      48.859100000000005     42.606850000000009     48.095299999999995
H      50.074900000000000     49.752849999999995     47.186899999999994
H      48.252800000000008     47.721649999999997     50.281599999999997
H      48.898900000000005     47.926450000000003     48.669599999999988
H      49.226800000000011     52.498950000000008     48.480499999999992
H      47.486900000000006     49.558949999999996     51.578800000000001
H      47.739900000000006     53.393149999999991     49.867199999999997
H      45.939500000000010     51.764449999999997     51.201099999999997
H      47.659200000000006     44.792950000000005     49.941199999999995
H      46.626000000000005     43.450150000000008     48.743199999999987
H      47.160700000000006     46.695149999999998     49.841099999999997
H      45.925100000000000     47.450550000000007     48.821899999999999
H      48.694400000000002     43.634550000000004     46.416599999999988
H      46.885900000000007     47.981549999999999     46.691699999999997
H      49.277400000000000     45.384050000000002     44.421199999999999
H      47.672000000000004     47.690849999999998     44.439799999999991
H      48.053000000000004     49.268349999999998     46.489300000000000
H      48.913500000000013     50.963850000000008     46.152000000000001
O      49.032500000000006     43.331649999999996     48.769199999999998
