15

C      48.432199999999995     45.729559999999992     47.652749999999990
C      45.902900000000002     46.735160000000000     48.394750000000002
C      48.141400000000004     47.113959999999999     47.898449999999997
C      46.733600000000010     47.620560000000005     48.162450000000007
C      49.251800000000003     48.191859999999998     47.873249999999999
C      46.417700000000011     48.911160000000002     48.210949999999997
C      48.945900000000009     49.564760000000000     48.146549999999998
C      47.540999999999997     49.900260000000003     48.203049999999998
H      49.390000000000015     45.577460000000002     47.605249999999998
H      47.952700000000007     45.025640000000003     48.164549999999998
H      46.205600000000004     45.699460000000002     48.249249999999996
H      50.339399999999998     47.830460000000009     48.054450000000003
H      45.660600000000002     49.389859999999992     47.973249999999993
H      49.821500000000015     50.267460000000000     48.343049999999998
H      47.302400000000006     50.974359999999997     48.261749999999992
