6

C      48.391699999999986     48.232899999999994     47.387449999999994
C      47.755499999999991     47.520000000000003     48.377250000000004
H      49.403900000000000     48.417200000000001     47.697850000000003
H      47.889799999999987     48.569699999999997     46.525350000000003
H      48.049699999999994     47.430300000000003     49.474649999999997
H      46.596100000000000     47.519900000000000     48.169950000000000
