6

C      47.783199999999994     47.419099999999986     47.809699999999992
C      48.297900000000006     48.539899999999996     48.149600000000000
H      46.821199999999997     47.327899999999993     47.481800000000000
H      48.525900000000000     46.564900000000002     48.056800000000003
H      47.786400000000008     49.435099999999998     48.121400000000001
H      49.178800000000003     48.562599999999996     48.518200000000000
