33

C      49.018985999999984     51.085149999999992     49.116704999999989
C      48.304786000000000     49.325950000000006     46.476224999999999
C      47.616086000000003     51.225350000000006     48.470205000000000
C      47.511686000000005     50.428849999999997     47.225915000000001
C      46.752485999999998     51.659450000000007     49.481305000000006
C      46.137486000000003     50.620649999999998     47.072375000000001
C      45.430286000000002     51.757850000000005     49.033504999999998
C      45.118085999999998     51.240449999999996     47.817005000000002
C      46.690486000000000     47.390050000000002     48.096805000000003
C      48.370885999999992     44.528949999999995     48.424305000000004
C      48.150686000000000     47.250150000000005     47.839804999999998
C      48.800485999999999     45.976550000000003     48.056804999999997
C      49.048585999999993     48.364450000000005     47.527605000000001
C      50.245685999999999     46.038849999999996     48.234205000000003
C      50.404785999999994     48.382149999999996     47.365304999999999
C      50.915686000000001     47.146150000000006     47.792405000000002
H      48.672485999999999     43.747050000000002     49.169404999999998
H      49.190685999999992     52.029150000000001     49.913004999999998
H      49.023785999999994     50.368250000000003     50.078005000000005
H      47.522585999999997     48.686250000000001     45.929645000000001
H      46.230386000000003     46.391549999999995     47.889004999999997
H      47.083186000000005     51.626750000000001     50.619905000000003
H      45.582485999999996     50.179850000000002     46.239024999999998
H      44.646185999999993     52.252949999999998     49.521704999999997
H      44.069585999999994     51.121750000000006     47.502105000000000
H      49.752485999999998     50.908649999999994     48.348604999999999
H      45.909085999999995     48.346249999999998     48.470804999999999
H      48.688585999999994     43.999250000000004     47.459305000000001
H      47.315285999999993     44.496049999999997     47.963504999999998
H      48.626786000000003     49.330650000000006     45.380094999999997
H      50.697685999999997     45.281250000000000     48.859105000000000
H      50.923786000000000     49.358949999999993     47.055385000000001
H      51.930414000000006     46.814549999999997     47.976304999999996
