16

C      48.168799999999983     46.828799999999994     49.524849999999986
C      49.211100000000002     46.182700000000004     47.119349999999997
C      47.728999999999999     47.585499999999996     48.644750000000002
C      48.236499999999992     47.273299999999992     47.284250000000000
C      46.838099999999997     48.652200000000008     48.898049999999998
C      48.212400000000002     48.363799999999998     46.435149999999993
C      46.705999999999989     49.649000000000001     47.844549999999998
C      47.611800000000002     49.644199999999998     46.672449999999998
H      47.659999999999997     47.182400000000001     50.527950000000004
H      49.278899999999993     46.528100000000002     49.680750000000003
H      49.981999999999999     46.614100000000001     46.380949999999999
H      49.483300000000000     45.485100000000003     48.056849999999997
H      46.227300000000000     48.719499999999996     49.807350000000000
H      48.977800000000002     48.237000000000002     45.472049999999996
H      46.018000000000001     50.514899999999997     47.992350000000002
H      47.477699999999999     50.387200000000007     45.774050000000003
