44

C      48.667299999999990     50.328374999999994     48.496150000000000
C      49.090599999999995     50.431775000000002     47.080950000000001
C      49.945899999999995     45.300775000000002     48.780349999999999
C      50.326899999999995     45.572674999999990     47.282750000000007
C      48.634200000000007     48.940574999999995     49.045949999999991
C      49.620999999999995     49.150374999999997     46.564949999999996
C      49.323800000000006     46.416375000000002     49.213949999999997
C      50.618899999999996     46.831074999999998     46.744249999999994
C      49.425500000000000     47.692075000000003     48.673150000000007
C      49.766000000000005     47.891174999999990     47.204750000000004
C      48.731600000000000     51.698374999999999     48.760749999999987
C      48.322100000000006     52.745975000000001     47.887150000000005
C      48.572500000000005     52.635174999999990     46.553550000000001
C      49.910200000000003     43.055475000000001     48.480750000000000
C      50.081599999999995     43.148074999999992     47.116849999999999
C      50.548800000000000     44.429274999999990     46.454049999999995
C      47.727200000000003     48.777374999999992     50.082249999999988
C      46.810299999999998     48.624775000000000     51.056449999999998
C      49.341800000000006     51.929674999999989     50.169250000000005
C      48.847800000000007     53.826774999999998     45.791550000000001
C      49.097399999999993     53.798074999999997     44.283950000000004
C      48.511600000000001     52.366574999999997     51.174250000000001
C      45.514899999999997     49.604474999999994     50.702349999999996
H      45.161999999999999     50.432175000000001     51.551850000000002
H      50.212999999999994     49.052974999999989     45.724350000000001
H      48.618899999999996     46.561075000000002     50.101749999999996
H      50.992199999999997     46.874174999999994     45.785150000000002
H      48.421899999999994     53.775174999999990     48.352649999999997
H      49.864900000000006     42.168374999999997     48.901449999999997
H      50.503000000000000     44.554274999999990     45.382050000000007
H      46.945700000000002     48.180174999999991     52.064750000000004
H      50.324500000000000     52.119074999999995     50.431649999999991
H      49.875799999999998     53.252774999999986     43.753249999999994
H      48.254000000000005     53.117575000000002     43.810249999999996
H      49.805700000000002     41.042625000000001     46.661349999999999
H      48.950800000000001     52.661675000000002     52.246750000000006
H      47.473799999999997     52.391874999999999     51.060050000000004
H      45.007800000000003     48.748874999999998     50.667349999999999
H      45.639299999999999     50.351574999999997     49.822249999999997
H      49.351900000000001     54.957374999999999     44.144850000000005
N      48.947100000000006     51.376975000000002     46.259950000000003
N      49.916200000000003     44.109574999999992     49.244749999999996
O      48.273700000000005     54.890874999999994     46.129350000000002
O      49.817599999999999     42.010475000000000     46.342849999999999
