18

C      48.976499999999980     46.706149999999994     49.884834999999995
C      49.119299999999996     45.859249999999996     48.610567000000003
C      48.155799999999999     47.794049999999991     49.939554999999999
C      48.101399999999998     46.251349999999995     47.580404999999999
C      47.642199999999988     48.393449999999994     48.794482000000002
C      47.648899999999998     47.554849999999995     47.544404999999998
C      47.413499999999999     49.754150000000003     48.551293000000001
C      46.871499999999997     47.919750000000001     46.336105000000032
C      47.297100000000000     50.112249999999996     47.175805000000025
C      46.966999999999999     49.277149999999999     46.046804999999992
H      48.585299999999989     48.365349999999999     50.936795000000004
H      49.280400000000000     46.101450000000000     50.787725000000009
H      49.530799999999999     44.856249999999996     48.953315000000003
H      47.969200000000001     45.641550000000002     46.712905000000006
H      47.466299999999990     50.378350000000005     49.476205000000007
H      46.469200000000001     47.229549999999996     45.801305000000013
H      47.200699999999998     51.143750000000004     46.749504999999999
H      46.717099999999988     49.680050000000001     45.063204999999996
