9

C      48.635699999999986     47.152049999999996     48.367469999999997
C      47.824699999999993     48.544349999999994     48.529270000000004
C      47.605400000000003     49.056449999999998     47.141070000000006
H      49.573999999999998     47.321150000000003     48.533470000000001
H      48.478399999999993     46.800449999999998     47.292070000000002
H      48.186499999999995     46.273449999999997     48.826069999999994
H      47.857200000000006     49.012949999999989     49.537669999999999
H      48.164000000000001     49.726550000000003     46.462330000000001
H      46.426000000000002     49.030550000000005     47.270670000000003
