6

C      47.978778499999990     48.686149999999998     48.009999999999998
C      47.901348499999997     47.326650000000008     47.793700000000001
H      47.914078500000002     49.102049999999998     49.084299999999999
H      47.768861500000000     49.332850000000001     47.168400000000005
H      47.951248499999991     46.667149999999999     48.663400000000010
H      48.231138500000000     46.980150000000002     46.915700000000001
