22

C      49.505849999999988     46.005599999999987     48.404849999999996
C      50.499150000000000     45.221499999999999     49.259550000000004
C      48.507449999999992     46.841999999999992     48.881950000000003
C      45.888549999999995     47.108299999999993     47.053449999999998
C      48.097749999999991     48.003899999999994     47.997850000000000
C      46.704549999999998     48.160599999999995     47.830349999999996
C      48.827050000000000     49.341699999999996     48.111149999999995
C      46.126249999999999     49.485499999999995     47.794150000000002
C      48.249449999999996     50.503799999999991     48.397949999999994
C      46.700149999999994     50.548899999999996     48.215249999999997
H      44.756850000000000     47.323199999999993     47.171549999999996
H      46.098949999999988     46.044199999999996     47.253249999999994
H      50.161249999999995     45.754100000000001     47.537049999999994
H      51.243150000000000     44.586199999999998     48.772850000000005
H      49.991450000000000     44.660800000000002     50.014149999999987
H      50.690550000000002     45.862499999999990     50.059049999999999
H      48.019449999999992     46.722599999999993     49.853549999999998
H      45.881649999999993     47.219400000000000     45.940950000000001
H      49.917850000000001     49.174500000000002     48.188350000000000
H      44.939049999999995     49.709799999999994     47.656149999999997
H      48.707949999999997     51.413800000000002     48.758550000000000
H      46.099849999999989     51.366299999999988     47.949849999999998
