133

C      48.853800000000000     49.763199999999991     53.745549999999994
C      47.787100000000002     50.659399999999991     54.015649999999994
C      42.608500000000006     48.730899999999991     44.677850000000007
C      44.008300000000006     48.234099999999998     44.449750000000009
C      42.401200000000003     49.439599999999999     45.862150000000000
C      49.149700000000003     49.773799999999987     52.289550000000006
C      46.829000000000008     51.204499999999989     52.962850000000003
C      45.284100000000002     48.629599999999996     45.086350000000010
C      42.775599999999997     50.542900000000003     47.563850000000002
C      43.688300000000005     50.502600000000001     48.886949999999999
C      48.628200000000007     49.912499999999987     49.864650000000012
C      45.862600000000008     50.484299999999990     50.798450000000003
C      43.517400000000002     49.655299999999997     46.569550000000007
C      48.344099999999997     50.184999999999995     51.271150000000006
C      47.074200000000005     50.716999999999999     51.664550000000006
C      47.444700000000005     49.777099999999990     48.884250000000009
C      45.032200000000003     49.625299999999996     46.197450000000003
C      45.088400000000007     50.158400000000000     48.580750000000009
C      46.162000000000006     50.235599999999991     49.439850000000007
C      45.745700000000006     49.691099999999992     47.374549999999999
C      43.228700000000003     50.742499999999993     50.183950000000010
C      44.474699999999999     50.874499999999991     51.086750000000009
C      44.518000000000008     51.512500000000003     52.387350000000012
C      45.517100000000006     51.538599999999995     53.462750000000000
C      49.033999999999999     48.701999999999998     54.741349999999997
C      48.627200000000002     49.019899999999993     56.183449999999993
C      47.588700000000003     50.010399999999990     56.239350000000002
C      47.063000000000002     50.792099999999984     55.260950000000008
C      46.103600000000007     51.647599999999990     55.898449999999997
C      45.474600000000002     52.175199999999982     54.805150000000012
C      41.376500000000007     48.387299999999996     44.084950000000006
C      41.501400000000004     47.290999999999997     43.335450000000009
C      42.815399999999997     46.632899999999992     42.789450000000002
C      43.846800000000002     47.240499999999997     43.457450000000009
C      50.247000000000000     48.792299999999997     52.325050000000005
C      50.021700000000003     47.484399999999994     52.973150000000004
C      49.816800000000001     47.664299999999997     54.436749999999989
C      40.863800000000005     49.440500000000000     46.029450000000011
C      40.064400000000006     49.149199999999993     44.804749999999999
C      42.183400000000006     48.161999999999992     40.029650000000004
C      42.534800000000004     46.649999999999991     40.122050000000002
C      42.760700000000007     46.077500000000001     41.413550000000001
C      42.161200000000008     45.559799999999996     39.231650000000002
C      40.942000000000007     45.249200000000002     38.794250000000005
C      46.575400000000009     48.126899999999992     44.936150000000012
C      49.931200000000004     49.870099999999987     49.170650000000009
C      48.739100000000008     48.182499999999990     57.303449999999998
C      49.838899999999995     46.102899999999991     41.841050000000010
C      49.232100000000003     46.878799999999998     42.864249999999998
C      54.086600000000011     45.524900000000002     44.260050000000007
C      53.496399999999994     46.212499999999991     45.390650000000008
C      51.094000000000001     45.379999999999995     42.002949999999998
C      49.865400000000008     46.782899999999998     44.163550000000001
C      53.434799999999996     45.613299999999995     42.889850000000010
C      52.097600000000000     46.368399999999994     45.478650000000002
C      52.013899999999992     45.728899999999996     43.159350000000003
C      51.271000000000001     46.180799999999991     44.340350000000001
C      48.961900000000000     46.044299999999993     40.721250000000012
C      48.075100000000006     47.196299999999994     40.318250000000006
C      47.594099999999997     47.985299999999995     41.520250000000004
C      47.923600000000008     47.454899999999995     42.784350000000003
C      55.463000000000001     45.273299999999992     44.227450000000005
C      56.131699999999995     45.576899999999995     45.383450000000011
C      55.700400000000002     46.730999999999995     46.237750000000005
C      54.417700000000004     46.984799999999993     46.278150000000011
C      49.333100000000002     45.035499999999999     39.714650000000006
C      47.593600000000002     45.801400000000001     38.608250000000012
C      47.069900000000004     46.802199999999999     39.340450000000004
C      50.425100000000008     44.235900000000001     39.918950000000009
C      51.333900000000000     44.392499999999998     41.008450000000011
C      52.319200000000002     43.332899999999995     41.416950000000000
C      53.290800000000004     42.794100000000000     40.431250000000006
C      48.989599999999996     46.508699999999990     46.339449999999999
C      48.930800000000005     47.288499999999999     45.041150000000002
C      47.756200000000007     47.764499999999998     44.354950000000002
C      54.099000000000004     48.114699999999999     47.320850000000007
C      54.928299999999993     49.289499999999990     47.166650000000004
C      55.887699999999995     44.396999999999991     42.964950000000002
C      39.745100000000008     46.209499999999991     38.941850000000002
H      39.801800000000007     47.100999999999999     38.345050000000001
H      42.777700000000003     51.693699999999986     46.685950000000005
H      43.599100000000007     51.956800000000001     52.458950000000002
H      47.077799999999996     50.019099999999987     57.271349999999998
H      45.913700000000006     52.019199999999998     56.948450000000008
H      41.261000000000003     48.146499999999989     40.502850000000009
H      50.251999999999995     49.442599999999999     48.144150000000010
H      50.282899999999998     46.418799999999990     52.534350000000003
H      50.071399999999997     46.859499999999997     55.066850000000002
H      40.418600000000005     49.590800000000002     46.866650000000007
H      41.606600000000007     50.604199999999992     47.627150000000000
H      39.218199999999996     48.684500000000000     45.078950000000006
H      42.508400000000009     48.560000000000002     38.920450000000002
H      42.816699999999997     44.939200000000000     41.772950000000009
H      44.643300000000004     47.099999999999994     42.779450000000011
H      41.198100000000004     44.287899999999993     38.258750000000006
H      40.073599999999999     46.371099999999998     40.074550000000002
H      44.966600000000000     53.735399999999998     55.711150000000004
H      41.329400000000007     51.177499999999988     49.700850000000003
H      50.857700000000001     49.933199999999992     49.879750000000001
H      51.010300000000001     48.726599999999991     51.442050000000009
H      49.041399999999996     47.160100000000000     57.122950000000003
H      49.008899999999997     48.478499999999997     58.376849999999990
H      53.880700000000004     42.409999999999997     41.435150000000007
H      51.517099999999999     47.183099999999996     46.045349999999999
H      46.876600000000003     48.803899999999999     41.480550000000008
H      57.244100000000003     45.177199999999999     45.247250000000008
H      56.390599999999992     47.177300000000002     46.952950000000001
H      46.916400000000003     46.021699999999996     37.623150000000010
H      46.285900000000005     47.455100000000002     38.901650000000004
H      50.391199999999998     43.614599999999996     39.131250000000009
H      52.763600000000004     43.619799999999998     42.641750000000002
H      53.463799999999992     42.264600000000002     39.583850000000012
H      53.879300000000001     45.369500000000002     41.979250000000008
H      48.977800000000002     47.410600000000002     47.031350000000003
H      48.037000000000006     46.027299999999997     46.320150000000012
H      49.999499999999998     46.001700000000000     46.465550000000007
H      55.847999999999999     49.254999999999995     47.846550000000008
H      55.438000000000002     49.469600000000000     46.088550000000012
H      56.613100000000003     45.088299999999990     42.221150000000009
H      56.235299999999995     43.507499999999993     43.636150000000001
H      54.930300000000010     44.003699999999995     42.648550000000000
H      43.906700000000008     45.641099999999994     38.725149999999999
H      39.872100000000003     50.096099999999986     44.311250000000001
H      38.755899999999997     45.588899999999995     38.723750000000010
H      54.013499999999993     49.993299999999984     47.367350000000002
H      42.787000000000006     48.632399999999990     40.798749999999998
H      40.625699999999995     46.807899999999989     42.875150000000005
N      47.171000000000006     49.397999999999996     47.720150000000004
N      48.551400000000008     44.932400000000001     38.708449999999999
O      43.192999999999998     45.048299999999998     38.470849999999999
O      45.032400000000003     53.479900000000001     54.822249999999997
O      41.951600000000006     51.145099999999999     50.501950000000008
O      53.089600000000004     47.918799999999990     47.961449999999999
