17

C      50.506549999999990     47.611649999999997     49.686894999999993
C      48.524650000000001     49.711349999999996     47.475095000000010
C      49.266149999999996     47.393050000000002     48.968995000000007
C      47.740450000000003     48.748349999999988     47.532095000000012
C      48.214149999999997     47.420649999999995     48.002495000000010
C      46.462949999999999     48.883449999999996     47.236795000000001
C      47.418249999999993     46.463549999999998     47.256795000000011
C      45.601449999999993     47.884850000000000     46.667475000000010
C      46.062149999999995     46.542649999999995     46.890645000000006
H      50.364049999999999     48.663549999999987     49.576695000000001
H      48.132249999999999     50.613849999999999     48.047095000000013
H      51.281450000000000     46.790350000000004     49.611095000000006
H      46.009749999999997     49.990549999999999     47.216095000000010
H      47.652349999999998     45.386150000000001     47.457595000000012
H      44.718550000000000     48.266549999999995     46.313105000000007
H      45.731549999999999     45.662850000000006     46.345055000000002
H      49.491449999999993     49.731549999999999     47.131915000000006
