22

C      48.262850000000000     49.939399999999992     46.737449999999995
C      49.372950000000003     48.909900000000000     46.099049999999998
C      46.923349999999999     49.095399999999991     47.203449999999997
C      49.499150000000000     47.584099999999999     46.665950000000002
C      47.217449999999999     47.880400000000002     48.246150000000007
C      48.462850000000003     47.333199999999998     47.876449999999998
C      46.476250000000007     47.055399999999999     49.244950000000003
C      48.771749999999997     46.069099999999999     48.554049999999997
C      46.827550000000002     45.913499999999992     49.969150000000006
C      48.253850000000000     45.701999999999991     49.756450000000008
H      48.099649999999997     50.893499999999996     46.188549999999999
H      49.012050000000002     50.229399999999991     47.487850000000002
H      49.305549999999997     49.052900000000001     45.054949999999998
H      50.430949999999996     49.379299999999994     46.040550000000003
H      46.441950000000006     48.695399999999999     46.299150000000004
H      46.247450000000001     49.706899999999997     47.497050000000002
H      50.559249999999992     47.358799999999995     46.994950000000003
H      49.410150000000002     46.777399999999993     45.711649999999999
H      45.440750000000008     47.271499999999996     49.178050000000006
H      49.654849999999996     45.368199999999995     48.216950000000004
H      46.414050000000003     45.574499999999993     50.945050000000002
H      48.708250000000007     45.106500000000004     50.627550000000006
