6

C      48.641399999999997     47.781250000000000     47.894049999999993
C      47.301900000000003     47.686149999999998     47.732849999999999
H      49.291100000000000     48.549049999999994     47.348150000000004
H      48.911400000000000     47.488349999999997     49.024150000000006
H      46.708900000000000     47.450950000000006     48.591849999999994
H      47.055400000000006     48.422449999999998     46.975849999999994
