16

C      46.919049999999984     47.723849999999992     46.044949999999986
C      49.377650000000003     48.740750000000006     46.210149999999999
C      47.428950000000000     48.491849999999999     47.141850000000005
C      48.855649999999997     48.674349999999990     47.302850000000007
C      46.582849999999993     48.753950000000003     48.249349999999993
C      49.566149999999993     48.491550000000004     48.476050000000001
C      47.341849999999994     48.650350000000003     49.528649999999999
C      48.700150000000008     48.649149999999999     49.614350000000002
H      47.393149999999991     46.919849999999997     45.485749999999996
H      45.874449999999996     47.952150000000003     45.682050000000004
H      48.544650000000004     48.757649999999998     45.432550000000006
H      50.445149999999998     48.593850000000003     46.615449999999996
H      45.427449999999993     48.544749999999993     48.179950000000005
H      50.572550000000007     48.615349999999992     48.435050000000004
H      46.997950000000003     48.751150000000010     50.567449999999994
H      49.240650000000002     49.080150000000003     50.533649999999994
