5

C      48.059749999999987     48.179749999999991     48.163549999999987
H      48.886550000000000     48.705349999999996     48.368449999999996
H      47.782749999999993     47.268249999999995     48.716850000000008
H      47.688850000000002     48.250449999999987     47.283149999999992
H      47.113450000000000     48.731750000000005     48.370850000000004
