6

C      48.549650000000000     48.425249999999984     48.138449999999992
C      47.520850000000003     47.660849999999996     47.748150000000003
H      49.440249999999999     48.100149999999999     48.613549999999996
H      48.417450000000009     49.431849999999997     48.022550000000003
H      46.559750000000001     48.203649999999996     47.386450000000004
H      47.333850000000005     46.568150000000003     48.052650000000007
