60

C      50.435650000000003     49.299423999999988     45.388649999999991
C      50.057450000000003     48.442624000000002     46.467549999999989
C      46.081249999999997     52.267023999999999     43.847949999999997
C      44.900550000000010     52.252023999999999     44.617249999999999
C      43.969650000000001     50.895124000000003     46.834249999999997
C      49.468249999999998     50.274623999999996     44.785950000000000
C      48.644250000000000     48.394724000000004     47.042149999999992
C      47.372749999999996     51.909723999999990     44.438249999999996
C      45.396450000000002     49.885624000000000     48.281949999999995
C      44.882350000000002     51.424023999999996     45.885849999999991
C      48.450450000000004     50.481124000000001     45.956149999999994
C      47.755449999999996     49.557724000000000     46.787149999999997
C      47.330849999999998     51.388123999999998     45.836550000000003
C      46.618350000000007     50.104824000000001     47.525250000000000
C      46.175350000000009     51.132624000000000     46.532150000000001
C      49.504649999999998     50.892623999999991     43.508849999999995
C      48.417749999999998     51.892423999999998     43.472250000000003
C      48.186250000000001     47.343623999999998     47.835049999999995
C      45.566749999999999     49.326323999999993     49.555949999999996
C      51.483850000000004     48.896723999999999     44.462649999999996
C      52.521950000000004     48.229623999999994     45.162349999999996
C      52.397950000000009     47.845123999999991     46.440749999999994
C      50.987350000000006     47.492324000000004     46.791049999999998
C      51.729950000000002     49.543624000000001     43.214449999999999
C      50.764850000000010     50.578223999999999     42.826449999999994
C      49.372349999999997     46.606124000000001     48.071250000000006
C      43.718249999999998     53.079224000000004     44.057049999999997
C      44.961750000000009     45.865323999999994     53.098549999999996
C      45.315750000000008     47.879624000000000     52.271249999999995
C      44.770650000000003     47.426724000000000     50.966049999999996
C      44.097650000000002     46.222923999999999     50.926549999999992
C      44.319550000000007     45.389023999999999     52.006649999999993
C      43.638550000000009     43.912523999999998     52.219549999999998
C      44.473750000000010     42.915624000000001     51.452650000000006
C      44.401350000000008     48.600124000000001     50.134349999999998
H      46.091350000000006     52.553123999999990     42.747450000000001
H      43.006749999999997     51.220323999999998     46.619450000000001
H      48.378950000000003     52.402023999999990     42.527949999999997
H      53.495850000000004     47.774523999999992     44.694649999999996
H      53.296450000000007     47.330323999999997     46.848450000000000
H      52.754350000000002     49.458623999999993     42.974750000000000
H      51.458950000000002     51.001724000000003     42.022250000000000
H      46.287050000000008     47.600423999999997     47.819049999999997
H      48.982749999999996     46.082323999999993     49.048749999999998
H      43.389550000000000     52.753024000000003     42.852449999999997
H      42.879649999999998     53.101623999999994     44.687449999999998
H      44.856949999999998     45.281323999999991     53.977750000000000
H      45.547250000000005     48.897923999999996     52.414249999999996
H      43.655450000000002     45.722124000000001     49.992350000000002
H      45.015550000000005     43.424624000000001     50.602350000000001
H      45.763850000000005     43.043123999999999     51.712449999999990
H      43.945949999999996     41.917324000000001     50.940549999999988
H      46.424650000000000     49.304523999999994     50.257649999999998
H      43.446449999999999     48.715423999999992     49.661349999999999
H      43.917950000000005     54.082675999999999     43.804249999999996
N      44.190449999999998     50.279024000000000     47.943349999999995
N      50.720750000000010     46.580323999999997     47.730049999999991
N      45.406450000000007     47.063223999999998     53.268249999999995
O      46.922750000000008     46.933523999999998     48.316749999999999
O      42.504149999999996     43.592824000000000     52.332749999999990
