18

C      48.714649999999992     48.580149999999989     50.399349999999991
C      45.941130000000001     47.407179999999997     48.683050000000001
C      48.455449999999999     48.191739999999996     48.905749999999998
C      47.349049999999991     47.711640000000003     48.091349999999998
C      49.661749999999998     48.471630000000005     48.284849999999999
C      47.377309999999994     47.866090000000000     46.742550000000001
C      49.922249999999991     48.302329999999998     46.914549999999998
C      48.711449999999999     47.959450000000004     46.163449999999997
H      45.830689999999990     46.296700000000001     49.031250000000000
H      49.027349999999998     49.703299999999999     50.559350000000002
H      49.681849999999983     48.464569999999995     50.857450000000000
H      45.070250000000001     47.148089999999996     48.044649999999997
H      45.951549999999997     47.995590000000007     49.563150000000000
H      50.247450000000001     49.086650000000006     49.035649999999997
H      46.451830000000001     47.585220000000007     46.101250000000000
H      50.929749999999999     48.456450000000004     46.536349999999999
H      48.709649999999996     47.747119999999995     45.142550000000000
H      47.853020000000001     48.389579999999995     50.726050000000001
