30

C      47.699849999999984     48.925899999999992     46.247899999999994
C      47.861350000000002     46.181799999999996     47.450500000000005
C      46.544449999999998     48.044499999999999     46.166100000000000
C      46.560949999999991     46.699700000000000     46.696900000000007
C      45.189749999999989     48.454799999999999     45.889300000000006
C      45.667949999999990     45.575499999999998     46.522200000000005
C      44.356250000000003     47.359200000000001     45.549800000000005
C      44.528149999999997     45.969700000000003     45.610000000000007
C      51.969850000000008     50.550299999999993     47.921000000000006
C      51.161050000000003     48.972999999999999     50.311900000000001
C      50.779550000000000     49.771799999999999     47.922799999999995
C      50.546850000000006     48.677599999999998     48.957300000000004
C      49.785449999999997     49.607900000000001     46.869400000000013
C      49.702150000000003     47.485699999999994     48.773800000000008
C      48.909149999999997     48.689399999999999     47.019300000000001
C      48.676950000000005     47.398699999999998     47.815200000000004
H      47.482349999999997     50.214200000000005     46.128400000000006
H      48.240250000000003     45.599400000000003     46.477200000000003
H      47.863050000000001     49.400900000000007     45.198300000000003
H      45.085349999999991     49.524599999999992     45.610000000000007
H      45.319049999999990     44.729900000000001     47.248900000000006
H      43.479149999999990     47.740099999999998     44.961500000000001
H      43.784949999999995     45.211799999999997     45.383800000000001
H      52.142049999999998     51.270099999999999     47.159400000000005
H      50.076850000000007     49.201599999999999     50.819400000000002
H      49.733950000000007     50.234499999999997     46.046100000000003
H      49.256949999999989     47.010899999999999     49.636600000000001
H      47.625050000000002     45.264699999999998     48.119399999999999
H      52.520850000000010     50.581800000000001     48.762300000000010
H      52.253550000000004     48.651899999999998     51.038499999999999
