5

C      48.175539999999998     48.534349999999989     48.609749999999991
C      47.866640000000004     47.976549999999996     47.424349999999997
H      49.114539999999998     48.798949999999998     49.102950000000000
H      48.426040000000008     47.201050000000002     46.897050000000000
H      46.885460000000002     47.936850000000000     47.012250000000002
