22

C      49.751249999999999     46.197249999999997     47.610899999999987
C      48.956649999999996     46.544550000000008     46.458500000000001
C      49.911749999999998     48.036950000000012     47.745099999999994
C      47.838650000000001     47.335950000000004     46.174899999999994
C      48.648949999999999     48.593850000000010     48.307400000000001
C      47.572950000000006     48.013450000000013     47.563699999999997
C      48.487449999999995     49.458450000000006     49.418199999999999
C      46.189149999999998     48.237150000000007     47.875200000000007
C      47.139150000000001     49.805350000000011     49.755600000000001
C      46.084050000000005     49.224250000000005     49.044700000000006
H      49.013949999999994     45.920850000000009     48.393100000000004
H      50.862449999999995     45.918450000000000     47.573899999999995
H      48.424450000000007     45.520750000000000     46.162300000000002
H      49.365549999999999     46.362349999999999     45.569400000000002
H      50.083849999999998     48.222950000000004     46.579599999999999
H      50.847949999999997     48.284450000000000     48.425700000000006
H      47.721150000000009     48.062150000000010     45.281599999999997
H      46.937550000000002     46.767749999999999     46.034599999999998
H      49.546250000000001     49.797750000000001     49.772499999999994
H      45.525150000000011     47.904750000000000     47.119299999999996
H      47.102150000000009     50.479250000000000     50.718400000000003
H      45.137550000000005     49.586050000000007     48.970600000000005
