6

C      47.924449999999993     48.467099999999988     48.544349999999994
C      47.876150000000003     47.353099999999998     47.649450000000002
H      48.783949999999997     48.496299999999998     49.324249999999999
H      47.216050000000003     49.466000000000001     48.587350000000001
H      48.625549999999997     46.533999999999999     47.878150000000005
H      47.366850000000007     47.570299999999996     46.675750000000001
