9

C      48.842939999999999     49.040099999999995     47.532599999999995
C      48.404340000000005     47.840000000000003     47.303600000000003
C      47.125839999999997     47.479400000000005     48.113700000000009
H      49.706440000000001     49.572099999999999     47.300300000000007
H      48.973739999999992     46.967500000000001     47.033299999999997
H      47.060440000000000     48.154300000000006     48.966700000000003
H      47.938940000000002     49.483900000000006     48.011800000000008
H      47.259739999999994     46.427900000000001     48.451400000000007
H      46.293559999999999     47.409100000000002     47.653500000000008
