5

C      48.288999999999994     47.757499999999986     47.224350000000001
H      48.032600000000002     47.810699999999997     49.981749999999991
H      48.187000000000005     47.200199999999995     46.018250000000009
O      48.207200000000007     48.980300000000000     47.207450000000009
S      47.711000000000006     47.019700000000000     48.843850000000003
