6

C      47.432534999999994     47.976099999999995     47.574649999999998
C      48.501585000000006     47.941199999999995     48.510750000000002
H      46.416725000000000     47.842200000000005     48.103250000000003
H      47.712585000000004     48.254199999999997     46.479950000000002
H      49.583275000000000     47.930400000000006     48.024150000000006
H      48.440555000000003     47.745800000000003     49.520049999999998
