22

C      47.677999999999997     45.581949999999992     48.883949999999992
C      46.905200000000001     46.642650000000010     49.711349999999996
C      48.970199999999998     46.454150000000006     48.117350000000002
C      48.086199999999998     47.747550000000011     49.978449999999995
C      48.375400000000006     47.689750000000011     47.569949999999999
C      48.294900000000005     48.581850000000010     48.737849999999995
C      48.189100000000003     47.999350000000000     46.234250000000003
C      48.133600000000008     49.947949999999999     48.326850000000000
C      47.784700000000008     49.315350000000002     46.021749999999997
C      47.273599999999995     50.140650000000001     47.172749999999994
H      46.813200000000002     45.327649999999998     48.262149999999998
H      48.176800000000007     44.693249999999999     49.468449999999990
H      46.373100000000001     47.476649999999999     49.072249999999997
H      46.191600000000001     46.437750000000001     50.518349999999998
H      49.808399999999999     46.478349999999999     48.819149999999993
H      49.376100000000001     45.707350000000012     47.360749999999996
H      49.095700000000001     47.245250000000006     50.152050000000003
H      47.750999999999998     48.205950000000009     50.971850000000003
H      48.302799999999998     47.181650000000012     45.415750000000003
H      48.402899999999995     50.842550000000010     48.937550000000002
H      47.905899999999995     49.782350000000001     45.028149999999997
H      46.819300000000005     51.306750000000001     46.937249999999999
