22

C      48.450299999999984     46.115899999999989     46.216769999999997
C      49.470899999999993     46.263099999999994     47.178409000000002
C      47.691399999999994     47.541799999999995     46.206969999999991
C      48.661899999999996     46.442999999999998     48.625330000000012
C      47.448199999999993     48.307500000000005     47.541278000000013
C      48.065899999999992     47.837599999999995     48.704789999999996
C      46.643599999999999     49.512100000000004     47.519576000000008
C      47.977100000000000     48.531499999999994     49.911410000000004
C      46.730600000000003     50.426400000000001     48.623330000000003
C      47.431300000000000     49.910499999999999     49.846210000000006
H      48.930599999999991     46.140799999999999     45.216569999999997
H      47.770699999999998     45.214900000000000     46.592369999999995
H      50.246400000000001     47.077299999999994     46.967401000000002
H      50.199899999999992     45.378000000000000     47.354754000000007
H      46.935600000000001     47.589600000000004     45.455970000000001
H      48.329599999999992     48.288300000000007     45.588770000000004
H      49.140599999999999     45.948899999999995     49.523440000000008
H      47.767999999999994     45.675200000000004     48.642040000000001
H      46.159699999999994     49.611599999999996     46.577269999999992
H      48.227499999999999     47.831699999999998     50.783430000000003
H      45.753599999999999     50.785100000000000     48.684559999999998
H      47.262799999999991     50.366399999999999     50.731460000000006
