16

C      50.138849999999998     48.007399999999990     48.230499999999992
C      48.070450000000008     49.731699999999996     49.073700000000002
C      48.796450000000007     47.814999999999998     47.761200000000002
C      47.625050000000002     48.739899999999999     48.262200000000000
C      48.571849999999998     46.560000000000002     47.153300000000002
C      46.325550000000007     48.510700000000007     47.717500000000001
C      47.221850000000003     46.408299999999997     46.919699999999999
C      46.150149999999996     47.222999999999999     47.072400000000002
H      50.898049999999998     47.579099999999997     47.710299999999997
H      50.462950000000006     48.542700000000004     49.078399999999995
H      47.461050000000000     50.459899999999998     49.354199999999999
H      49.247050000000002     49.936699999999995     49.463799999999999
H      49.357250000000008     45.780600000000000     47.024700000000003
H      45.578350000000000     49.203600000000002     47.973399999999998
H      46.898250000000004     45.540100000000002     46.536200000000001
H      45.101950000000002     47.026100000000000     46.730300000000000
