8

C      47.600399999999993     48.472399999999993     48.204399999999993
C      48.818800000000003     47.629300000000001     48.035500000000006
H      47.638799999999996     49.443600000000004     47.651299999999999
H      46.582000000000001     48.274600000000007     47.561100000000003
H      49.417999999999999     47.837699999999998     46.820399999999999
H      48.410599999999995     46.556399999999996     47.827200000000012
H      49.310899999999997     47.739800000000002     48.943300000000001
H      47.294699999999999     48.826500000000010     49.179600000000001
