16

C      46.782949999999992     49.610429999999980     48.906499999999987
C      49.666150000000002     49.394869999999990     49.161199999999994
C      47.307350000000000     48.650069999999992     48.367299999999993
C      48.838450000000002     48.529799999999987     48.387599999999992
C      46.664250000000003     47.621929999999992     47.684999999999995
C      49.410950000000000     47.135192999999987     48.173699999999997
C      47.268850000000000     46.642299999999992     46.872599999999991
C      48.616750000000010     46.344430199999991     47.098699999999994
H      50.403549999999996     47.141685999999993     47.552299999999995
H      46.050750000000001     50.447929999999992     48.950099999999992
H      50.014250000000004     48.958159999999992     50.149500000000003
H      49.090550000000007     50.464889999999990     49.140799999999992
H      45.596450000000004     47.720289999999991     47.447599999999994
H      49.382250000000013     46.301185799999992     48.888799999999996
H      46.936850000000007     46.292091899999988     45.850499999999997
H      49.278050000000007     45.535110000000010     46.522799999999997
