40

C      47.882749999999994     48.872149999999991     46.153749999999995
C      46.382150000000003     48.672550000000001     45.991250000000001
C      47.129249999999999     47.694049999999997     50.901350000000008
C      45.777850000000001     48.374450000000003     50.780450000000002
C      48.513249999999999     48.539250000000003     47.455550000000002
C      45.642850000000003     48.857050000000001     47.150150000000011
C      47.939850000000007     47.499050000000004     49.826250000000002
C      45.350949999999997     48.872750000000003     49.582549999999998
C      47.641550000000002     48.305150000000005     48.594350000000006
C      46.100149999999999     48.426449999999996     48.427850000000007
C      48.719149999999999     48.920449999999995     45.023949999999999
C      48.094450000000009     49.178449999999998     43.641350000000003
C      46.717849999999999     49.196649999999998     43.531149999999997
C      45.773850000000003     48.851649999999999     44.577150000000003
C      47.552350000000004     47.181449999999998     52.208350000000003
C      46.929650000000002     47.310749999999999     53.403350000000003
C      45.588949999999997     48.157350000000001     53.208050000000000
C      44.910850000000003     48.499749999999999     51.982250000000001
C      50.330749999999995     49.076850000000000     45.089250000000007
C      51.077650000000006     49.690950000000001     43.936950000000003
C      50.596450000000004     49.683950000000003     42.675449999999998
C      49.177350000000004     49.442649999999993     42.707750000000004
C      49.887450000000001     48.175549999999994     47.164550000000006
C      50.859250000000003     48.710850000000001     46.275850000000005
C      49.007050000000007     46.526450000000004     49.908749999999998
H      44.492850000000004     48.961049999999993     46.942950000000003
H      44.450249999999997     49.613650000000000     49.237250000000003
H      46.555250000000001     49.610849999999992     42.555350000000004
H      44.838949999999997     48.577449999999999     44.256450000000001
H      48.461650000000006     46.497750000000003     52.093350000000001
H      47.494349999999997     46.800950000000000     54.256950000000003
H      45.086550000000003     48.183850000000000     54.287549999999996
H      43.859549999999999     48.935049999999997     52.110550000000003
H      52.140450000000001     49.950550000000000     44.052149999999997
H      51.121549999999999     50.367049999999999     41.712450000000004
H      48.434550000000002     49.960450000000002     41.987650000000002
H      50.043450000000000     48.228349999999999     48.386350000000000
H      51.947250000000011     48.660249999999998     46.619250000000001
H      49.116650000000007     46.266649999999998     50.937650000000005
O      49.010850000000005     45.632950000000001     49.029949999999999
