57

C      49.483499999999992     49.902449999999988     45.711599999999997
C      50.370400000000004     49.545649999999995     44.485300000000009
C      49.839799999999997     54.119850000000000     43.427000000000007
C      49.248300000000000     51.291750000000008     45.836000000000013
C      50.661100000000005     50.285250000000005     43.322900000000004
C      49.100300000000004     53.405050000000003     44.396200000000007
C      50.522699999999986     53.040549999999996     42.822600000000008
C      49.762499999999989     52.135650000000012     44.761700000000005
C      50.408399999999986     51.737150000000000     43.432100000000005
C      48.921800000000005     48.851249999999993     46.377200000000002
C      49.119799999999998     47.512950000000004     45.724600000000009
C      50.315100000000001     47.148349999999994     45.095600000000005
C      51.004599999999996     48.298950000000005     44.783900000000003
C      48.274799999999999     49.207549999999998     47.696500000000000
C      47.798599999999993     48.154150000000001     48.467799999999997
C      48.046800000000005     46.792450000000002     47.936800000000005
C      48.735500000000002     46.450249999999997     46.638100000000009
C      51.148700000000005     53.406350000000003     41.510100000000008
C      47.822999999999993     50.597849999999994     48.178400000000011
C      47.499600000000001     45.769949999999994     48.690500000000000
C      49.026899999999998     41.285150000000002     54.846299999999999
C      49.295999999999992     41.727850000000004     53.454599999999999
C      48.319199999999995     42.446650000000005     52.670000000000002
C      49.728899999999996     45.375450000000001     46.578500000000005
C      47.387299999999996     43.426450000000003     53.293600000000012
C      47.466700000000003     44.676149999999993     50.869300000000010
C      46.934100000000001     44.567949999999996     52.120699999999999
C      46.790700000000001     45.635149999999996     50.004600000000011
C      45.478999999999999     44.518850000000000     52.109899999999996
C      45.530400000000000     46.196749999999994     50.279000000000003
C      44.910799999999995     45.670950000000005     51.347600000000000
H      47.895600000000002     44.859449999999995     48.165500000000009
H      48.603099999999998     51.981550000000013     46.321899999999999
H      51.196600000000004     49.869450000000001     42.462900000000005
H      48.203199999999995     53.984549999999999     44.853200000000001
H      49.943599999999989     55.129750000000001     43.039900000000003
H      50.645200000000003     46.290750000000003     44.775900000000007
H      51.992699999999999     48.159149999999997     44.425800000000010
H      48.506500000000003     44.404449999999997     50.466900000000010
H      51.583799999999997     54.390150000000006     41.182300000000005
H      48.357500000000002     51.730350000000001     48.101600000000005
H      47.111699999999999     48.065449999999998     50.472400000000007
H      49.264499999999998     42.292249999999996     55.460499999999996
H      47.590199999999996     41.096649999999997     55.094700000000003
H      50.021799999999985     40.870249999999999     55.230500000000006
H      49.967600000000004     41.147649999999999     52.692800000000005
H      48.859499999999997     42.613950000000003     51.718700000000005
H      50.259900000000002     44.966350000000006     45.605600000000010
H      50.528899999999993     45.204549999999998     47.241500000000002
H      47.555300000000003     43.872450000000001     54.296300000000002
H      46.429999999999993     42.944149999999993     53.287700000000001
H      44.818100000000001     44.242850000000004     52.845900000000000
H      45.189800000000005     47.020550000000000     49.578699999999998
H      44.007300000000001     46.063450000000003     51.713400000000007
O      51.424899999999994     52.676150000000007     40.539500000000004
O      47.264700000000005     50.857249999999993     49.232300000000009
O      47.406400000000005     48.558149999999998     49.648500000000006
