22

C      50.144349999999989     47.859899999999989     49.142249999999990
C      50.321150000000003     46.823299999999996     48.114749999999994
C      48.583249999999992     47.442099999999996     49.633049999999990
C      49.309150000000002     46.898499999999999     47.161449999999995
C      47.509150000000005     47.974299999999999     48.701249999999995
C      48.035349999999994     47.939899999999994     47.383549999999993
C      46.300150000000002     48.782499999999999     48.961249999999993
C      47.583249999999992     48.662199999999999     46.359649999999995
C      45.604950000000002     49.305399999999999     47.982249999999993
C      46.307649999999995     49.325999999999993     46.741649999999993
H      50.991950000000003     47.818399999999997     49.860249999999986
H      50.195550000000011     48.940599999999996     48.647549999999995
H      50.729650000000007     45.783299999999997     48.752149999999993
H      51.395650000000003     46.951899999999995     47.722249999999995
H      48.371349999999993     47.993499999999997     50.600950000000005
H      48.744749999999996     46.402499999999996     49.600450000000002
H      49.613550000000004     47.043999999999997     46.191949999999991
H      48.754850000000005     45.922399999999996     47.286949999999997
H      45.988950000000003     48.832200000000000     50.348249999999986
H      48.252949999999998     48.676699999999997     45.399049999999995
H      44.604349999999997     49.976500000000001     48.067449999999994
H      45.779749999999993     50.216700000000003     46.200649999999996
