17

C      46.212199999999996     49.201699999999988     47.098599999999990
C      46.715500000000006     48.025500000000001     49.517499999999998
C      47.352599999999995     48.169800000000002     47.328600000000002
C      47.514399999999995     47.561599999999991     48.699800000000003
C      48.461600000000004     48.209699999999991     46.620100000000001
C      48.569500000000005     46.715899999999998     48.979999999999997
C      49.601100000000002     47.387499999999996     46.943700000000000
C      49.659800000000004     46.579500000000003     48.079000000000001
H      45.794600000000003     49.035099999999993     45.878799999999998
H      46.765400000000000     50.019399999999997     46.787599999999998
H      46.273300000000006     47.634799999999991     50.345199999999998
H      46.194800000000001     48.898099999999992     48.950400000000009
H      48.456099999999992     48.868000000000002     45.654800000000002
H      48.455900000000000     46.028600000000004     49.817100000000003
H      50.306299999999993     47.413300000000000     46.273099999999999
H      50.644599999999997     45.980600000000003     48.346299999999999
H      45.355400000000003     48.923600000000000     47.743200000000009
