18

C      50.384999999999991     49.305199999999999     46.714799999999997
C      50.176299999999998     48.243200000000009     47.745400000000004
C      47.673099999999998     48.467000000000006     47.404399999999995
C      48.764000000000003     47.839300000000001     48.114199999999997
C      46.455799999999996     48.142200000000010     47.957899999999995
C      48.411099999999998     46.640800000000006     48.781800000000004
C      46.126700000000000     46.842700000000001     48.520699999999991
C      47.139199999999995     46.170600000000000     49.226999999999990
H      50.520000000000003     47.392200000000010     47.534999999999997
H      47.739399999999996     49.364400000000010     47.015400000000000
H      50.889800000000001     49.248100000000001     45.752600000000001
H      50.336199999999998     50.384599999999999     47.028099999999995
H      49.260599999999997     49.238199999999999     46.234200000000001
H      50.694799999999994     48.856400000000001     48.644999999999996
H      45.721100000000000     48.616100000000010     47.488199999999992
H      48.987899999999996     45.615400000000001     49.073300000000003
H      45.110199999999999     46.604900000000008     48.343800000000002
H      46.939500000000002     45.870899999999999     50.247399999999999
