56

C      53.970929999999981     49.128569999999996     50.422349999999994
C      46.283000000000001     49.812690000000003     48.370950000000008
C      48.870479999999986     48.231850000000009     47.582750000000004
C      46.838499999999996     49.621899999999997     46.844350000000006
C      47.837399999999988     48.794430000000006     46.353450000000009
C      46.307100000000005     50.469399999999993     45.891750000000002
C      48.327500000000001     48.627530000000007     45.072550000000007
C      46.683999999999983     50.560940000000002     44.581050000000005
C      47.927599999999998     49.832619999999991     44.360349999999997
C      50.398589999999984     48.066479999999999     47.549450000000007
C      52.059869999999989     46.311639999999997     49.113050000000001
C      50.914559999999994     48.506640000000004     48.961150000000004
C      51.846399999999988     47.738270000000000     49.668950000000009
C      50.633969999999991     49.881680000000003     49.563050000000004
C      52.553079999999994     48.301770000000005     50.852649999999997
C      50.864719999999991     50.041699999999992     50.991150000000005
C      51.857889999999983     49.286100000000005     51.680350000000004
C      41.807000000000002     48.632300000000001     48.973450000000000
C      44.913399999999982     49.966670000000008     49.000450000000001
C      43.262799999999984     48.052369999999996     49.153450000000007
C      44.510599999999997     48.603819999999999     49.430950000000010
C      42.292099999999991     45.697230000000005     49.999350000000007
C      45.276100000000000     48.137340000000009     50.733050000000006
C      43.263099999999994     46.883700000000005     50.065449999999998
C      44.287999999999997     46.866619999999998     50.911850000000001
H      53.848009999999988     49.019199999999998     49.282650000000004
H      46.681300000000007     49.075479999999999     49.111350000000002
H      42.651100000000000     44.678200000000004     50.182550000000006
H      42.095600000000019     45.851450000000000     48.853149999999999
H      54.081670000000003     49.946919999999992     51.102550000000008
H      52.289589999999990     45.733450000000005     49.936950000000010
H      46.706900000000005     50.663029999999992     48.499049999999997
H      48.315399999999997     48.680170000000004     48.461550000000003
H      48.404945399999988     47.144490000000005     47.835949999999997
H      45.706600000000009     51.287599999999998     46.259749999999997
H      48.669081999999989     47.575469999999996     44.552250000000001
H      46.354000000000013     51.321799999999996     43.779650000000004
H      48.004399999999990     49.897009999999995     43.204149999999998
H      50.370479999999986     48.814220000000006     46.705250000000007
H      50.803059999999988     47.073499999999996     47.220950000000002
H      52.508419999999987     46.208870000000005     48.006250000000009
H      51.079669999999993     45.818480000000008     48.751550000000009
H      49.994639999999990     50.744600000000005     49.132950000000008
H      52.609939999999995     47.350859999999997     51.461650000000006
H      50.290469999999985     51.051600000000008     51.267750000000007
H      51.824289999999991     49.349149999999995     52.795850000000002
H      41.897600000000011     49.541640000000001     48.661550000000005
H      41.195800000000006     48.799720000000008     49.812150000000003
H      41.245799999999988     47.981800000000007     48.377150000000000
H      44.345500000000015     50.487480000000005     48.221550000000008
H      44.804800000000000     50.691599999999994     49.982750000000010
H      41.257800000000003     45.539560000000009     50.727750000000015
H      45.273899999999983     49.061049999999994     51.348650000000006
H      44.352099999999993     46.235010000000003     51.646850000000001
H      46.446500000000015     47.829509999999999     50.449050000000014
H      54.804199999999994     48.403779999999998     49.996650000000002
