18

C      47.007999999999996     46.265099999999997     46.615099999999998
C      48.102499999999992     45.514800000000001     46.992799999999988
C      47.037999999999997     47.677400000000006     46.439800000000005
C      47.992199999999997     48.681800000000010     47.045000000000002
C      47.913899999999998     48.704900000000009     48.532299999999992
C      48.873699999999999     49.692500000000010     46.472700000000003
C      48.290499999999994     49.825199999999995     49.341999999999999
C      49.391400000000004     50.491999999999997     47.360299999999995
C      49.234499999999997     50.684199999999990     48.823300000000003
H      47.349099999999993     47.863799999999998     49.244900000000001
H      47.932799999999986     44.492199999999997     47.325599999999994
H      46.093900000000005     45.644100000000002     46.595299999999995
H      49.233300000000000     45.828699999999998     47.242899999999992
H      45.956699999999998     47.909099999999995     46.522099999999995
H      49.018400000000000     50.038600000000002     45.524100000000004
H      48.165899999999993     49.563099999999991     50.475899999999996
H      50.043300000000002     51.290599999999998     47.122199999999992
H      49.825400000000002     51.507800000000003     49.369900000000001
