6

C      48.081899999999990     47.694749999999999     47.327424999999991
C      47.976300000000002     48.418250000000000     48.530764999999995
H      48.946199999999997     47.108150000000009     47.209674999999997
H      47.240500000000004     47.638450000000006     46.610334999999999
H      47.053800000000003     48.891849999999991     48.883114999999997
H      48.908999999999999     48.491550000000004     49.389665000000001
