6

C      48.627449999999996     47.976593600000001     47.880749999999992
H      48.789949999999997     47.781285000000004     46.787250000000000
H      48.304350000000007     49.025615000000009     47.986350000000002
H      49.571149999999996     47.701185000000031     48.317450000000008
H      46.428850000000004     48.052614000000013     49.212750000000000
S      47.192649999999993     46.974384999999991     48.178950000000000
