16

C      49.528059999999989     48.309099999999994     45.763500000000001
C      46.622129999999999     49.175100000000000     46.783100000000005
C      48.915979999999998     48.005499999999998     47.000600000000006
C      47.538660000000000     48.596100000000000     47.581000000000003
C      49.561689999999999     47.156399999999998     47.938600000000008
C      47.281729999999996     48.789900000000003     48.984899999999996
C      49.257120000000000     47.476700000000001     49.217500000000001
C      48.230080000000001     48.215200000000003     49.848900000000000
H      50.394019999999998     47.826200000000000     45.214500000000001
H      48.868169999999999     48.764600000000002     44.980699999999999
H      45.605980000000002     49.611599999999996     47.078900000000004
H      47.045310000000001     49.512799999999999     45.717799999999997
H      50.337620000000001     46.388400000000004     47.718400000000003
H      46.611739999999998     49.401299999999999     49.537400000000005
H      50.064270000000008     46.890400000000000     49.791399999999996
H      48.178629999999998     47.951500000000003     51.019300000000001
