5

C      47.998849999999990     47.949199999999990     48.007588999999996
H      47.203049999999998     47.427900000000008     48.795015000000006
H      48.647649999999992     48.781400000000005     48.726854999999986
H      47.608550000000001     48.521200000000007     47.204984999999994
H      48.796950000000002     47.218599999999995     47.943398999999999
