5

C      47.856849999999994     48.017899999999990     47.925349999999995
H      48.876649999999998     47.472899999999996     47.769950000000001
H      47.754949999999994     48.895200000000003     47.195550000000004
H      47.123350000000002     47.104799999999997     47.852250000000005
H      47.593850000000003     48.294899999999998     48.804449999999996
