6

C      48.204349999999991     48.013949999999994     47.342799999999997
C      47.923849999999995     47.938749999999999     48.686900000000001
H      47.382150000000003     48.360050000000001     46.457900000000002
H      49.222249999999995     48.016050000000000     47.171599999999998
H      46.777750000000005     47.856050000000003     48.713099999999990
H      48.545449999999995     47.639949999999999     49.542099999999998
