21

C      46.346099999999993     49.789580000000001     47.462699999999998
C      48.720000000000006     48.678220000000010     49.544699999999999
C      46.119000000000000     48.693939999999998     48.351900000000008
C      48.466699999999996     47.902349999999998     48.271300000000004
C      47.199400000000004     47.625820000000004     47.943800000000003
C      49.630600000000001     47.049040000000005     47.692299999999996
C      46.739200000000004     46.548699999999997     47.140800000000006
C      49.250599999999999     45.817459999999997     47.001799999999996
C      47.777700000000003     45.781090000000006     46.661300000000004
H      47.985500000000002     49.477110000000010     49.759200000000000
H      46.283000000000001     49.431500000000000     46.359400000000001
H      47.381999999999998     50.364609999999999     47.707200000000007
H      45.872400000000006     50.846189999999993     47.060499999999998
H      49.858300000000007     48.508679999999998     49.950499999999998
H      48.044499999999999     48.048890000000000     50.215399999999995
H      46.130800000000001     48.881200000000007     49.437700000000000
H      45.277900000000002     48.219400000000007     48.005299999999998
H      50.722099999999998     47.599410000000006     47.688700000000004
H      45.731200000000001     46.345260000000010     46.781699999999994
H      49.777000000000001     45.226120000000009     46.565900000000006
H      47.421600000000005     45.153810000000007     45.784600000000005
