20

C      49.830199999999991     48.281399999999991     49.548549999999992
C      48.776900000000005     47.527700000000003     50.318350000000002
C      49.654100000000007     49.016699999999993     48.105750000000000
C      47.961000000000006     46.746800000000000     49.512850000000000
C      48.440700000000000     48.244099999999996     47.501649999999998
C      47.862600000000008     47.136099999999992     48.082649999999994
C      48.002600000000008     48.805000000000000     46.186149999999998
C      46.553300000000000     46.693800000000003     47.524049999999995
C      47.066399999999994     47.910899999999991     45.640449999999994
C      46.146099999999997     47.041599999999995     46.294649999999997
H      50.765099999999997     47.663800000000002     49.520949999999999
H      50.240299999999998     49.147299999999994     50.254049999999999
H      48.759400000000007     47.424100000000003     51.364049999999999
H      50.362900000000003     49.320799999999998     47.078249999999997
H      49.537900000000000     49.977499999999999     48.525950000000002
H      47.161400000000008     46.244399999999999     50.285249999999998
H      48.644700000000007     49.853599999999993     45.753650000000000
H      45.794900000000005     46.022500000000001     48.024149999999999
H      46.887200000000000     48.109900000000003     44.635950000000001
H      45.234900000000003     46.649600000000000     46.103749999999998
