76

C      49.138299999999987     48.406949999999995     49.718649999999997
C      48.018799999999999     48.859449999999995     48.922050000000013
C      47.334400000000002     48.285449999999997     53.989050000000006
C      46.098900000000000     48.923050000000003     53.428050000000013
C      49.516900000000007     48.753050000000002     51.124150000000000
C      47.226100000000002     49.735649999999993     49.813750000000013
C      48.535200000000003     48.063549999999992     53.171550000000011
C      46.214600000000004     49.454849999999993     52.132250000000013
C      48.259100000000004     48.616449999999986     51.938950000000020
C      47.265500000000003     49.399849999999986     51.278450000000007
C      49.957200000000000     47.744649999999993     48.749850000000009
C      49.497399999999999     47.179549999999992     47.328850000000003
C      48.605300000000000     48.142650000000003     46.593250000000012
C      47.691900000000004     48.670850000000002     47.569250000000011
C      47.519999999999996     47.443550000000002     55.169150000000002
C      46.418099999999995     47.685249999999996     56.050550000000001
C      45.310500000000005     48.434550000000002     55.627950000000013
C      44.962099999999992     48.928849999999997     54.327750000000009
C      50.709199999999996     49.570949999999996     51.301450000000003
C      51.500599999999991     49.255749999999992     50.213650000000001
C      51.147199999999998     48.509749999999997     48.968150000000009
C      46.139099999999999     49.968450000000004     48.970350000000010
C      44.934500000000000     50.810949999999991     49.410350000000008
C      46.283400000000000     49.432949999999991     47.558550000000011
C      49.894500000000008     47.742149999999995     53.927150000000012
C      49.553000000000011     46.253249999999994     54.387250000000009
C      48.680099999999996     46.424549999999996     55.539950000000019
C      52.078599999999994     49.354749999999996     47.961950000000002
C      43.811199999999999     49.891149999999996     54.109750000000005
C      47.587800000000001     47.559249999999992     40.833150000000003
C      46.793399999999991     47.206450000000004     39.695550000000011
C      47.037300000000002     48.205849999999998     42.151650000000004
C      48.767099999999999     47.542349999999999     44.358650000000011
C      46.550200000000004     47.262050000000002     43.133450000000011
C      47.411799999999999     46.824849999999998     44.170450000000002
C      45.252899999999997     46.683250000000001     43.009850000000000
C      46.982100000000003     45.640850000000000     44.786250000000010
C      44.687200000000004     45.606849999999994     43.767850000000010
C      45.704499999999996     44.992549999999994     44.599950000000007
H      45.368300000000005     49.726450000000000     51.498550000000009
H      50.337699999999998     46.680149999999998     46.635250000000013
H      44.703900000000004     48.956849999999989     56.252650000000017
H      50.977599999999995     50.332249999999988     51.945850000000007
H      52.422499999999999     49.375649999999993     50.631350000000012
H      48.757999999999996     46.289050000000003     47.820850000000007
H      44.897099999999995     51.865449999999996     49.128250000000008
H      45.175299999999993     50.872949999999989     50.508550000000000
H      44.055700000000002     50.211649999999992     49.945650000000015
H      45.547799999999995     49.057249999999996     47.005650000000003
H      46.235399999999998     50.500150000000005     47.177950000000010
H      49.935000000000002     48.570849999999993     54.622650000000007
H      50.893400000000000     48.005449999999996     53.132250000000013
H      50.404899999999998     45.517250000000004     54.692550000000011
H      49.123300000000000     45.832449999999994     53.501750000000015
H      48.155400000000000     45.219750000000005     55.680550000000011
H      48.759699999999995     46.544550000000001     56.516150000000010
H      47.191800000000001     46.793149999999997     57.512850000000000
H      52.040099999999995     49.419749999999993     46.725150000000014
H      53.047200000000004     48.919950000000000     47.953650000000010
H      51.941199999999995     50.362749999999991     48.019750000000002
H      42.952799999999996     49.298749999999998     53.944750000000013
H      44.165499999999994     50.339449999999999     53.146350000000012
H      43.289999999999992     50.729550000000003     54.733750000000001
H      48.628199999999993     47.153049999999993     41.252250000000004
H      47.017700000000005     47.551349999999999     38.487150000000000
H      45.646199999999993     47.468149999999994     39.663450000000012
H      48.843800000000002     47.864149999999995     43.207250000000002
H      47.853799999999993     48.882049999999992     42.606750000000005
H      46.312200000000004     49.118549999999985     42.214650000000006
H      49.557199999999995     47.103349999999992     45.099450000000004
H      44.635899999999992     47.152749999999997     42.253350000000012
H      47.687100000000001     45.232349999999997     45.558250000000001
H      43.761399999999995     45.133749999999992     43.643550000000005
H      45.468499999999992     44.134550000000004     45.433450000000008
O      48.628599999999992     48.648250000000004     45.325950000000006
O      46.359700000000004     46.920649999999995     57.145250000000019
