20

C      50.409579999999991     48.402099999999997     48.860799999999990
C      45.513799999999996     50.426500000000004     47.216499999999996
C      49.091059999999999     48.532200000000003     48.802000000000000
C      46.548800000000000     50.008499999999998     47.939699999999995
C      48.159149999999997     47.794300000000007     47.883799999999994
C      46.918349999999997     48.475800000000007     47.585200000000000
C      48.430669999999999     46.402699999999996     47.693999999999996
C      46.097990000000003     47.620300000000000     46.973699999999994
C      47.417760000000001     45.471400000000003     47.227300000000000
C      46.336700000000000     46.230300000000000     46.659099999999995
H      51.064090000000000     48.782399999999996     49.628100000000003
H      50.827289999999998     47.608400000000003     48.348900000000000
H      45.349649999999997     51.523499999999999     47.444699999999997
H      44.935910000000000     49.876599999999996     46.371899999999997
H      48.511890000000001     49.076599999999999     49.337199999999996
H      47.058740000000000     50.154499999999999     48.863899999999994
H      49.385780000000004     45.995000000000005     47.882099999999994
H      45.261809999999997     48.049400000000006     46.445200000000000
H      47.734890000000000     44.476500000000001     46.988899999999994
H      45.448189999999997     45.576400000000007     46.381399999999999
