16

C      48.679049999999989     49.908699999999996     49.084549999999993
C      46.545349999999999     48.681799999999996     48.053249999999991
C      48.731650000000002     48.500000000000000     48.854450000000000
C      47.525149999999996     47.752300000000005     48.152850000000001
C      49.615549999999999     47.397099999999995     48.941949999999991
C      47.314450000000008     46.483599999999996     47.369450000000001
C      49.459650000000011     46.079899999999995     48.391449999999992
C      48.565449999999998     45.835399999999993     47.331549999999993
H      48.874549999999999     50.712000000000003     49.738549999999989
H      47.875150000000005     50.147899999999993     48.304749999999999
H      45.680149999999998     48.340199999999996     47.578450000000004
H      46.583849999999998     49.637100000000004     48.600250000000003
H      50.204149999999998     47.650099999999995     49.777749999999997
H      46.886650000000003     46.220500000000001     46.222250000000003
H      50.319850000000002     45.426800000000000     48.515050000000002
H      49.237250000000003     45.287999999999997     46.527649999999994
