6

C      47.315799999999996     48.087849999999989     48.026099999999992
C      48.776099999999985     47.923649999999995     48.058700000000002
H      46.480800000000002     47.544150000000002     47.939900000000002
H      47.365200000000002     49.107550000000003     48.106400000000001
H      49.519199999999998     48.465949999999992     47.521200000000000
H      48.959999999999994     46.892449999999997     48.478800000000000
