6

C      47.716594999999998     47.595999999999989     48.429349999999992
C      48.338994999999997     48.335900000000009     47.431150000000002
H      47.752794999999992     47.990200000000002     49.566850000000002
H      47.157205000000005     46.722099999999998     48.179650000000002
H      48.842794999999995     49.277900000000002     47.786450000000002
H      48.206294999999997     47.875600000000006     46.433149999999998
