22

C      46.111849999999997     47.278599999999997     46.314899999999994
C      48.083349999999996     49.661700000000003     47.572600000000008
C      47.507350000000002     47.119999999999997     46.957200000000000
C      48.238349999999997     48.163400000000003     47.654899999999998
C      47.934150000000002     45.725800000000000     46.645700000000005
C      49.466250000000002     47.688399999999994     48.291300000000007
C      49.116249999999994     45.301799999999993     47.350800000000007
C      49.830449999999999     46.371400000000001     48.020899999999997
C      49.115849999999995     51.271899999999995     49.183999999999997
C      48.123649999999998     50.247899999999994     49.079900000000009
H      46.131150000000005     48.184199999999997     45.624899999999997
H      45.948850000000007     46.406799999999997     45.637400000000000
H      45.490250000000003     47.235700000000001     47.149699999999996
H      46.988550000000004     49.928199999999997     47.213900000000010
H      48.794849999999997     50.309800000000003     46.995900000000006
H      47.450950000000006     45.259599999999999     45.824300000000008
H      50.232349999999997     48.342899999999993     48.717600000000004
H      49.745350000000002     44.454400000000000     47.385000000000005
H      50.509749999999997     45.966000000000001     48.883800000000008
H      49.266249999999999     51.261299999999999     50.375100000000003
H      49.749449999999996     51.545600000000000     48.110900000000001
H      47.514150000000001     49.618000000000002     49.933099999999996
