19

C      49.951049999999995     48.196599999999989     49.129044999999991
C      47.815550000000002     49.973199999999999     46.970684999999996
C      48.752549999999999     48.313200000000002     49.285774999999994
C      47.375349999999997     48.392599999999995     47.224435000000000
C      47.839349999999996     47.632899999999999     48.220504999999996
C      46.516249999999999     47.822800000000008     46.219107999999999
C      47.078550000000000     46.401100000000007     48.573225000000001
C      45.850249999999996     46.547199999999997     46.413910000000001
C      46.017849999999996     45.957600000000006     47.824234999999994
H      48.846750000000000     50.280300000000004     47.167094999999996
H      50.767350000000000     47.505699999999997     49.891155000000005
H      50.511950000000006     47.797800000000002     48.183335000000000
H      47.542949999999998     50.020699999999998     45.942998299999999
H      47.307350000000000     50.988599999999998     47.166014999999994
H      48.553350000000002     48.536000000000008     50.342445000000005
H      46.054349999999999     48.559100000000008     45.672655000000006
H      47.375949999999996     45.616300000000003     49.278455000000001
H      45.232650000000000     46.063099999999999     45.657554999999995
H      45.280949999999997     45.011400000000002     48.033515000000001
