6

C      47.557269999999988     48.508549999999993     47.940499999999993
C      48.555340000000001     47.701750000000004     48.239300000000000
H      47.543329999999997     49.017849999999996     46.905000000000001
H      46.597359999999995     48.694850000000002     48.740799999999993
H      49.402640000000005     47.336349999999996     47.890999999999998
H      48.349810000000005     46.982150000000004     49.094999999999999
