6

C      48.159199999999998     48.244999999999990     47.558549999999983
C      48.888599999999997     48.063499999999998     48.547449999999998
H      48.358199999999997     47.610799999999990     46.557549999999992
H      47.069800000000001     48.590299999999992     47.471350000000001
H      48.812200000000004     48.919300000000000     49.442450000000008
H      48.930199999999999     47.080700000000000     48.939250000000001
