6

C      48.259158499999991     47.278099999999995     48.165649999999985
C      48.089597099999999     48.671600000000005     48.026550000000000
H      48.901283499999998     46.722299999999997     47.455649999999991
H      47.298619500000001     46.868400000000001     48.615250000000003
H      47.018619500000000     49.047599999999996     48.057450000000003
H      48.981380500000000     49.277700000000003     47.384749999999997
