24

C      46.337149999999994     49.263149999999982     49.379684999999995
C      46.608150000000002     50.597849999999994     49.639355000000009
C      47.777949999999997     50.926449999999988     48.675125000000008
C      47.251349999999995     48.521349999999998     48.550984999999997
C      49.850749999999998     47.630749999999992     47.193955000000003
C      47.293550000000003     47.196150000000003     48.006105000000005
C      48.462350000000008     46.918449999999993     47.121865000000000
C      46.544450000000005     46.157749999999993     48.577515000000005
C      48.406349999999996     45.872950000000003     46.201745000000003
C      46.597550000000005     45.014249999999990     47.686095000000009
C      47.431149999999995     44.834350000000001     46.518735000000007
H      45.323050000000002     48.585949999999997     49.711655000000007
H      50.331350000000008     47.657150000000001     48.236305000000002
H      47.468849999999996     50.819350000000000     47.522075000000001
H      46.077249999999999     51.230649999999997     50.189255000000003
H      48.039250000000003     52.021650000000008     48.596474999999998
H      48.667949999999998     50.425749999999994     49.225875000000002
H      48.099849999999996     48.924349999999990     47.844245000000001
H      50.676949999999998     47.462850000000003     46.395904999999999
H      49.526450000000004     48.656549999999996     47.014065000000002
H      45.707249999999995     46.273449999999997     49.172305000000009
H      49.306050000000006     45.514650000000003     45.810744999999997
H      45.918050000000001     44.294049999999999     47.952635000000001
H      47.143250000000002     43.978349999999992     45.850774999999999
