32

C      46.910150000000002     44.801549999999992     47.377999999999993
C      47.440550000000002     48.917550000000006     49.440500000000000
C      47.597850000000008     47.888850000000005     48.462499999999999
C      49.285750000000007     52.021150000000006     46.627099999999999
C      49.201349999999991     51.484550000000013     45.390699999999995
C      47.973250000000007     50.141150000000010     49.391300000000001
C      48.097350000000006     48.299949999999995     47.203099999999999
C      48.978049999999996     51.780150000000006     47.898799999999994
C      49.094949999999997     50.047750000000008     45.677199999999999
C      48.655549999999991     50.420349999999999     48.169199999999989
C      48.615650000000002     49.519750000000016     46.957499999999996
C      46.902450000000002     48.654650000000004     50.786899999999996
C      46.459450000000004     47.343350000000001     50.899699999999996
C      46.987150000000000     46.209750000000000     50.168899999999994
C      47.421149999999997     46.380350000000007     48.825000000000003
C      49.760950000000008     49.015050000000016     44.847200000000001
C      48.240450000000010     45.346249999999998     48.115899999999996
H      47.030850000000001     43.569450000000003     47.189299999999996
H      45.727850000000004     44.841549999999998     47.649499999999996
H      46.484049999999996     45.603850000000008     46.861100000000000
H      49.379450000000006     52.026550000000015     44.377800000000001
H      47.905749999999998     51.007550000000009     50.291899999999998
H      49.174449999999993     52.430549999999997     48.830699999999993
H      46.958150000000003     49.586650000000006     51.495399999999989
H      46.049450000000007     47.401350000000008     52.010000000000005
H      50.086849999999998     48.031850000000006     45.187500000000000
H      47.177250000000001     47.328650000000010     45.815300000000001
H      48.580449999999999     44.675650000000005     49.004500000000000
H      48.972250000000003     45.655850000000001     47.395799999999994
H      47.204349999999991     45.129950000000008     50.497100000000003
O      50.272149999999996     49.752849999999995     43.989999999999995
O      48.082050000000010     47.443849999999998     46.098799999999997
