18

C      45.993749999999999     47.125199999999992     49.362399999999994
C      46.661350000000013     46.507999999999996     48.375999999999998
C      47.040549999999996     47.340199999999996     47.208999999999996
C      47.247450000000001     48.730800000000002     47.318899999999999
C      46.448250000000002     49.263100000000009     48.241900000000001
C      46.041550000000001     48.507199999999997     49.475900000000003
C      48.974550000000008     50.102900000000005     46.716799999999999
H      46.702450000000013     45.219899999999996     48.129799999999996
H      46.955750000000009     46.851900000000001     46.270900000000005
H      46.299549999999996     50.271100000000004     48.358200000000004
H      46.200350000000000     49.093199999999996     50.419599999999996
H      45.684350000000009     45.312100000000001     49.682300000000005
H      50.564650000000000     50.780100000000004     45.580400000000004
H      48.593350000000001     50.505700000000004     47.710400000000000
H      49.939650000000000     49.540800000000004     47.135799999999996
O      47.944749999999999     49.322100000000006     46.192500000000003
O      45.435350000000000     46.161799999999999     50.164999999999999
O      49.627850000000009     50.672200000000004     45.731900000000003
