6

C      47.414799999999993     48.143849999999986     47.952799999999996
C      48.637400000000000     47.702249999999992     48.265700000000002
H      49.128299999999996     46.788250000000005     48.276299999999999
H      47.423900000000003     49.211749999999995     47.723900000000008
H      49.449600000000004     48.281449999999992     47.955800000000004
H      46.550399999999996     47.639650000000003     47.723700000000001
