22

C      46.000999999999998     46.715616499999982     47.456799999999994
C      46.869600000000005     45.542216499999988     47.946399999999997
C      46.100000000000009     47.776516499999993     48.577200000000005
C      48.290800000000004     46.294616499999997     48.332000000000008
C      47.297700000000006     48.571716499999987     48.134100000000004
C      48.418099999999995     47.740116499999992     47.995699999999999
C      47.637200000000007     49.972616499999994     47.744200000000006
C      49.790199999999999     48.179516499999998     47.811400000000006
C      49.034300000000002     50.348916499999994     47.986300000000000
C      50.165199999999999     49.444516499999999     47.754700000000000
H      46.322600000000008     47.034516499999988     46.441400000000002
H      44.805199999999999     46.303816499999989     47.421800000000005
H      46.890200000000007     44.814016499999987     47.046300000000002
H      46.614600000000010     44.671816499999998     48.717399999999998
H      46.317800000000005     47.190816499999990     49.464700000000008
H      45.240000000000009     48.205816499999990     48.932299999999998
H      48.726200000000006     45.475316499999998     47.447800000000001
H      48.545700000000004     46.126216499999991     49.558599999999998
H      46.756200000000007     50.590526500000003     47.642499999999998
H      50.517899999999997     47.328416499999996     47.550200000000004
H      49.403800000000004     51.328183500000002     48.134000000000000
H      51.194800000000001     49.796416499999999     47.658799999999999
