17

C      46.969149999999992     49.196039999999996     46.405749999999983
C      49.578250000000004     47.948190000000004     46.670849999999994
C      47.295050000000003     48.253700000000002     47.585249999999995
C      48.559049999999999     47.797240000000002     47.380350000000000
C      46.355049999999999     48.023910000000001     48.536049999999996
C      49.073750000000004     46.891680000000001     48.566949999999999
C      46.760950000000001     47.112069999999996     49.600949999999990
C      48.073050000000002     46.588699999999996     49.657149999999994
H      46.924650000000000     48.701200000000000     45.437750000000001
H      45.916950000000000     49.467779999999998     46.429449999999996
H      47.670050000000003     49.993330000000000     46.179749999999991
H      50.624150000000000     47.902380000000001     46.942249999999994
H      49.553049999999999     47.776649999999997     45.555850000000000
H      45.375850000000000     48.386809999999997     48.699249999999999
H      49.813850000000002     46.249290000000002     48.101549999999996
H      45.931550000000001     47.055120000000002     50.562249999999999
H      48.384749999999997     46.006670000000000     50.506049999999995
