6

C      48.692999999999984     48.334099999999992     48.221299999999999
C      47.406499999999994     47.901800000000001     47.741399999999999
H      49.216800000000006     48.707699999999996     47.195400000000006
H      49.034300000000002     48.104700000000001     49.337199999999996
H      47.110699999999994     47.904800000000002     46.662800000000004
H      46.783199999999994     47.292300000000004     48.429299999999998
