43

C      45.889799999999987     48.520249999999997     47.900399999999991
C      45.622699999999995     49.999150000000000     48.520800000000008
C      49.855900000000005     50.379949999999994     46.813800000000001
C      47.063900000000004     48.205050000000000     47.151399999999995
C      46.507599999999996     51.110250000000008     48.238299999999995
C      49.422899999999998     49.033050000000003     47.014600000000002
C      48.805700000000002     51.422050000000006     47.004199999999997
C      48.054800000000000     49.249650000000003     47.220200000000006
C      47.603799999999993     50.638049999999993     47.468600000000009
C      45.019300000000001     47.535850000000003     48.240800000000007
C      43.995999999999995     47.931050000000006     49.316299999999998
C      43.726500000000001     49.311850000000000     49.392600000000002
C      44.443699999999993     50.429250000000003     48.949500000000000
C      44.992800000000003     46.092950000000002     47.777900000000002
C      44.000199999999992     45.353950000000005     48.380200000000002
C      43.272199999999998     45.595850000000006     49.507599999999996
C      43.408500000000004     46.944550000000007     50.167100000000005
C      46.082099999999997     46.053650000000005     46.687600000000003
C      47.146599999999992     46.839450000000006     46.536600000000007
C      48.107699999999994     46.390650000000001     45.892300000000006
C      50.433599999999998     47.840750000000000     46.914000000000001
C      51.320800000000006     50.474350000000001     46.784199999999998
C      51.901799999999994     48.117950000000000     47.353200000000001
C      52.311599999999999     49.588949999999997     46.978700000000003
C      44.107699999999994     44.150850000000005     47.349699999999999
H      46.353600000000000     52.097650000000002     48.652700000000010
H      48.867400000000004     52.573850000000000     46.957800000000006
H      42.726399999999998     49.271450000000002     49.812600000000003
H      44.154299999999992     51.456650000000003     49.170500000000004
H      42.816599999999994     44.615250000000003     49.948000000000008
H      42.813000000000002     46.958950000000002     51.079499999999996
H      46.015900000000002     45.030450000000002     46.015000000000001
H      48.997600000000006     45.988350000000004     46.165599999999998
H      48.144099999999995     45.795950000000005     44.920500000000004
H      50.256299999999996     47.294350000000001     45.936099999999996
H      50.166600000000003     47.156450000000007     47.495500000000007
H      53.273600000000002     49.868250000000003     47.214900000000000
H      51.611699999999999     51.474750000000000     46.430000000000007
H      52.569999999999993     47.584450000000004     46.636300000000006
H      52.187399999999997     47.861350000000002     48.537000000000006
H      44.629999999999995     44.329650000000001     46.478300000000004
H      44.935800000000000     43.567150000000005     47.698099999999997
H      43.232100000000003     43.426150000000000     47.240899999999996
