22

C      49.509664999999984     46.251849999999997     47.320849999999993
C      50.503284999999991     47.141350000000003     47.905549999999998
C      47.956971999999993     46.040949999999995     47.566250000000004
C      49.996054999999998     47.573250000000002     49.261249999999997
C      47.611877800000002     47.167249999999996     48.494650000000000
C      48.592523000000000     48.254949999999994     48.886749999999999
C      46.212644999999995     47.568049999999999     48.894349999999996
C      48.092550000000003     49.562049999999999     49.076749999999997
C      45.785444999999996     48.853449999999995     48.622250000000001
C      46.780144999999990     49.831950000000006     48.840949999999999
H      50.054575000000000     45.267049999999998     47.185650000000003
H      49.597954999999999     46.144949999999994     46.160450000000004
H      50.770715000000010     48.128349999999998     47.375750000000004
H      51.318055000000001     46.483249999999998     47.864249999999991
H      48.013502000000003     45.131249999999994     48.030149999999999
H      46.974145000000021     45.841849999999994     47.032649999999997
H      49.438144999999992     46.620249999999999     49.839549999999996
H      50.912444999999991     48.034350000000003     49.643850000000008
H      45.419945000000013     46.788049999999998     48.853349999999999
H      48.828344999999999     50.253050000000002     49.248849999999997
H      44.681944999999999     49.231849999999994     48.555050000000001
H      46.203545000000020     50.868750000000006     48.580750000000002
