20

C      46.179899999999989     48.879099999999987     46.160849999999989
C      47.488000000000000     48.743499999999997     45.628850000000000
C      45.955200000000005     48.427400000000006     47.542050000000003
C      48.413600000000002     47.670599999999993     46.317750000000004
C      47.358900000000006     48.189499999999995     48.471249999999998
C      48.531499999999994     48.079800000000006     47.764750000000006
C      47.298200000000008     48.042599999999993     49.854450000000000
C      49.819800000000001     47.678899999999999     48.406250000000000
C      48.639899999999997     48.297300000000007     50.464150000000004
C      49.832499999999996     48.109499999999997     49.674750000000003
H      45.327100000000002     49.158500000000004     45.572850000000003
H      47.783800000000014     48.982600000000005     44.552350000000004
H      45.261700000000005     49.223399999999998     47.978549999999998
H      45.129099999999994     47.802999999999997     47.665549999999996
H      47.896800000000013     46.776600000000002     46.261849999999995
H      49.443200000000004     47.483099999999993     45.753850000000000
H      46.478600000000000     47.796700000000001     50.643550000000005
H      50.591499999999996     47.225999999999999     47.633650000000003
H      48.870499999999993     48.794300000000007     51.447649999999996
H      50.870900000000006     47.962199999999996     50.174149999999997
