6

C      47.722499999999989     47.583621499999992     47.601299999999995
C      48.244000000000000     48.494564500000003     48.461000000000006
H      46.641700000000000     47.167765500000002     47.548300000000005
H      48.105500000000006     47.194567499999998     46.631099999999996
H      47.944800000000001     48.832234499999998     49.368900000000004
H      49.358300000000000     48.725664500000001     48.409399999999998
