9

C      47.656649999999992     46.754849999999990     47.580549999999988
C      47.525950000000002     47.459950000000006     48.848750000000003
C      48.530450000000002     48.795450000000017     48.452350000000003
H      48.393950000000004     47.105550000000008     49.566949999999999
H      48.635750000000002     49.548050000000003     49.248950000000001
H      49.540050000000001     48.691350000000014     48.112549999999992
H      48.059449999999998     49.296050000000008     47.422750000000001
H      46.459949999999999     46.937150000000017     49.062249999999999
N      47.555450000000000     46.451949999999997     46.433050000000001
