22

C      45.813649999999996     46.477750000000000     47.644799999999996
C      45.244749999999996     47.885550000000002     48.022000000000006
C      47.188249999999996     46.663149999999995     46.850000000000001
C      46.418150000000004     49.054849999999995     48.188199999999995
C      48.308850000000000     47.300249999999998     47.783400000000000
C      47.849150000000002     48.512750000000004     48.469000000000008
C      49.641449999999999     46.998150000000003     47.845600000000005
C      48.780050000000010     49.191250000000004     49.124900000000004
C      50.629250000000006     47.679849999999995     48.644099999999995
C      50.333850000000005     48.857049999999994     49.208400000000005
H      45.952649999999998     45.763550000000002     48.527500000000003
H      45.341949999999997     45.943649999999998     46.616300000000003
H      44.316949999999999     47.698450000000001     48.628100000000003
H      44.863450000000000     48.331750000000007     47.099800000000002
H      46.974150000000002     47.497449999999994     46.239800000000002
H      47.713950000000004     45.849449999999997     46.516900000000007
H      46.466650000000001     49.538050000000005     47.133300000000006
H      46.159249999999993     49.887350000000005     48.759200000000007
H      49.961250000000000     45.864849999999997     47.236100000000000
H      48.330050000000000     50.236449999999998     49.477500000000006
H      51.683050000000001     47.489449999999998     48.721299999999999
H      51.075449999999996     49.646949999999997     49.760199999999998
