25

C      47.423199999999994     49.536749999999984     49.834929999999986
C      45.302999999999997     46.362349999999992     47.051929999999999
C      45.805700000000002     48.899349999999998     46.793830000000000
C      47.352999999999994     48.021450000000002     49.817229999999995
C      46.187299999999993     47.508849999999995     47.172929999999994
C      48.135400000000004     47.329849999999993     48.775829999999999
C      47.672499999999999     47.215449999999990     47.461129999999997
C      49.597499999999997     47.446149999999989     49.007229999999993
C      48.451200000000000     47.422150000000002     46.278130000000004
C      50.414599999999993     47.839649999999992     47.946830000000006
C      49.680899999999994     47.921949999999995     46.744829999999993
H      47.982199999999992     49.588449999999995     50.885530000000003
H      46.630300000000005     50.612850000000009     49.685829999999996
H      48.530199999999994     49.806649999999991     49.246629999999996
H      44.658900000000003     46.597249999999988     46.188130000000001
H      45.315500000000000     45.387149999999991     47.423230000000004
H      46.735900000000001     49.595349999999996     46.749229999999997
H      45.260199999999998     49.077749999999995     45.855959999999996
H      47.747399999999999     47.551049999999989     50.797330000000002
H      46.423599999999993     47.504949999999994     49.575329999999994
H      45.002700000000004     49.265149999999991     47.360829999999993
H      48.177000000000007     47.406649999999999     45.114469999999997
H      50.201599999999999     47.648550000000000     49.862830000000002
H      51.341099999999997     48.117449999999991     47.931830000000005
H      50.519699999999986     48.302349999999990     45.982829999999993
