6

C      47.873349999999995     47.804349999999992     48.374249999999989
C      48.409250000000000     48.438949999999991     47.446250000000006
H      47.315049999999999     46.632649999999998     48.182150000000007
H      48.314650000000000     47.892750000000007     49.531850000000006
H      48.684950000000001     49.367350000000002     47.771050000000002
H      48.361050000000006     48.147350000000003     46.468149999999994
