8

C      48.387299999999989     48.034199999999991     47.482799999999990
C      47.064099999999996     47.916300000000000     48.472700000000003
H      48.405699999999996     47.129300000000001     46.902299999999997
H      47.784399999999991     48.704599999999999     46.672899999999998
H      49.498199999999997     47.767099999999999     47.917100000000005
H      47.334099999999992     47.296399999999998     49.327100000000002
H      46.501800000000003     48.044499999999999     47.552800000000005
H      46.852599999999995     48.870699999999999     48.998500000000007
