19

C      49.637299999999996     49.920999999999992     49.371949999999998
C      48.566400000000002     48.387999999999998     46.450749999999999
C      48.513099999999994     49.194099999999999     49.534450000000007
C      47.917299999999997     47.518899999999995     47.324349999999995
C      48.179500000000004     47.827999999999996     48.786150000000006
C      47.092299999999994     46.469500000000004     46.706649999999996
C      47.063000000000002     46.959099999999999     49.454049999999995
C      46.376800000000003     45.747700000000002     47.564449999999994
C      46.201400000000007     46.031500000000001     48.998750000000001
H      48.933899999999994     47.222100000000005     49.238050000000001
H      50.656499999999994     49.814699999999995     48.868549999999999
H      49.619799999999998     50.714000000000006     49.981949999999998
H      49.171499999999995     49.120799999999996     46.764750000000006
H      48.358599999999996     48.286099999999998     45.470050000000001
H      48.090900000000005     49.477200000000003     50.529949999999999
H      47.045000000000002     46.069899999999997     45.807150000000007
H      46.846400000000003     47.716199999999994     50.237150000000000
H      45.482799999999997     45.285999999999994     47.085149999999999
H      45.343500000000006     45.708000000000006     49.465949999999992
