34

C      45.828949999999992     49.872249999999994     50.778099999999988
C      45.332349999999998     47.933650000000007     48.123399999999990
C      47.252649999999996     49.686749999999996     50.347999999999999
C      47.672750000000001     48.702450000000006     49.323899999999995
C      48.224849999999996     50.489449999999998     50.888099999999994
C      49.006449999999994     48.361550000000001     48.963200000000001
C      49.682349999999992     50.158350000000006     50.594499999999996
C      50.001349999999995     49.090650000000004     49.785600000000002
C      48.520050000000005     50.214450000000006     46.606699999999989
C      46.843650000000004     48.511950000000006     48.175100000000000
C      48.223850000000006     48.819350000000007     46.034899999999993
C      47.676949999999998     47.932049999999997     46.982599999999991
C      48.855449999999998     48.414149999999999     44.857500000000002
C      48.109850000000002     46.546050000000001     47.120399999999989
C      49.027750000000005     46.850249999999996     44.819999999999993
C      48.853249999999996     46.000850000000007     45.943399999999997
H      46.274549999999998     49.471150000000002     48.058099999999996
H      45.481649999999995     49.623550000000002     51.936999999999998
H      44.927050000000001     49.387449999999994     50.206199999999995
H      45.496050000000004     47.362649999999995     49.099599999999995
H      47.743950000000005     51.072049999999997     46.970199999999991
H      47.893549999999998     51.146750000000004     51.681699999999992
H      49.308850000000000     47.625049999999995     48.230599999999995
H      50.254950000000001     51.117950000000000     51.177799999999991
H      51.144950000000001     48.781349999999996     49.352899999999991
H      48.978550000000006     50.726850000000006     45.451700000000002
H      49.618050000000004     50.181350000000002     46.885700000000000
H      44.855049999999999     48.856349999999999     48.257599999999996
H      45.011350000000000     47.058450000000001     47.506199999999993
H      49.399149999999999     48.880950000000006     44.083399999999997
H      47.649449999999995     45.947849999999995     47.735599999999991
H      49.602349999999994     46.324149999999996     44.063000000000002
H      48.934649999999998     44.853249999999996     45.794399999999996
H      46.045650000000002     51.020950000000006     50.742899999999992
