78

C      48.471049999999991     46.901900000000005     54.052289999999992
C      44.610749999999996     49.644400000000005     44.124699999999997
C      48.562049999999992     46.418900000000008     47.251289999999997
C      47.906949999999995     46.200000000000003     45.928590000000000
C      47.563649999999996     51.046000000000006     46.427589999999995
C      48.123149999999995     50.964100000000002     45.126289999999997
C      48.177249999999994     47.663000000000011     47.629790000000000
C      47.662149999999997     47.137300000000010     44.868189999999998
C      47.271949999999997     49.894400000000005     47.431689999999996
C      47.681049999999999     49.671700000000001     44.490089999999995
C      47.537849999999999     48.616500000000002     46.835189999999997
C      47.597249999999995     48.476500000000001     45.345389999999995
C      48.911949999999997     45.227500000000006     48.112490000000001
C      48.674749999999996     43.939000000000007     47.560189999999999
C      48.082349999999998     44.770000000000010     45.482389999999995
C      47.431949999999993     52.327600000000004     46.971689999999995
C      48.072949999999999     53.329800000000006     46.179289999999995
C      48.753449999999994     53.255000000000010     44.978589999999997
C      48.540349999999997     52.051500000000004     44.298909999999999
C      48.622749999999989     45.330700000000007     49.573689999999999
C      48.135549999999995     44.171300000000002     50.303089999999997
C      47.599349999999994     43.078200000000010     49.611489999999996
C      47.998549999999994     42.920500000000004     48.228789999999996
C      48.604149999999997     46.685200000000009     50.149189999999997
C      48.392049999999998     47.851300000000009     49.206890000000001
C      48.263949999999994     49.152400000000000     49.694289999999995
C      47.455949999999994     49.963500000000010     48.798789999999997
C      46.628449999999994     42.112300000000005     50.283290000000001
C      47.153249999999993     49.374000000000009     43.197009999999999
C      47.848549999999996     49.375300000000010     41.984269999999995
C      47.403949999999995     50.477900000000005     41.061049999999994
C      49.553450000000005     52.428600000000003     48.709989999999998
C      49.054349999999992     53.810700000000011     49.072389999999999
C      49.006149999999998     45.673600000000008     54.816989999999997
C      49.129249999999999     46.634200000000007     51.456589999999998
C      49.744349999999997     45.186400000000006     53.431889999999996
C      50.030249999999988     45.571400000000011     52.028489999999998
C      50.387249999999987     44.023600000000002     53.751689999999996
C      50.898050000000005     44.857500000000002     51.255290000000002
C      51.014649999999996     43.041600000000003     52.859489999999994
C      51.302349999999997     43.503300000000010     51.511489999999995
H      49.385449999999999     47.549599999999998     53.621690000000001
H      47.625449999999994     46.495000000000005     53.487389999999998
H      47.761149999999994     47.604900000000001     54.528089999999999
H      44.744549999999997     48.802400000000006     44.796889999999998
H      45.079849999999993     50.798500000000004     44.368399999999994
H      47.593949999999992     46.819400000000002     43.790239999999997
H      47.781249999999993     44.298200000000008     44.478690000000000
H      46.794849999999997     52.427800000000005     47.838789999999996
H      49.184049999999992     54.216999999999999     44.521749999999997
H      49.048549999999999     51.826000000000008     43.427709999999998
H      48.119149999999998     44.377600000000001     51.343890000000002
H      47.710649999999994     41.968400000000003     47.822490000000002
H      47.259049999999995     50.875500000000002     49.391489999999997
H      47.915549999999996     49.223800000000011     50.799090000000000
H      46.152449999999995     42.105500000000006     51.289589999999997
H      47.923149999999993     48.482500000000002     41.352429999999998
H      49.031349999999996     49.671700000000001     41.955669999999998
H      47.427549999999997     51.367200000000011     41.783650000000002
H      46.334349999999993     50.142000000000010     40.591670000000001
H      48.296449999999993     50.342700000000008     40.342010000000002
H      49.767349999999993     54.253500000000003     49.697090000000003
H      49.772749999999995     51.824200000000005     47.521389999999997
H      48.708049999999993     51.863100000000003     49.232590000000002
H      50.548849999999995     52.388600000000011     49.274090000000001
H      48.022049999999993     53.772600000000011     49.532889999999995
H      48.094249999999995     45.001800000000003     55.215289999999996
H      49.279649999999997     47.594999999999999     51.833489999999998
H      50.054949999999998     43.834400000000002     54.796390000000002
H      51.158249999999995     45.505300000000005     50.402889999999999
H      51.124149999999993     41.973399999999998     52.757689999999997
H      52.066750000000006     42.753399999999999     50.962090000000003
H      43.933249999999994     49.810900000000004     43.249029999999998
H      49.662649999999992     45.945800000000006     55.657989999999998
N      48.465849999999996     43.798900000000003     46.219989999999996
O      45.948149999999998     41.418700000000001     49.604889999999997
O      45.897149999999996     49.679500000000004     42.945979999999999
S      48.600649999999995     54.581299999999999     47.326490000000000
