22

C      47.973899999999986     47.750650000000000     45.568699999999986
C      48.975099999999998     46.981750000000005     46.299799999999991
C      46.338200000000001     48.326750000000004     46.195099999999996
C      48.719499999999996     46.766850000000005     47.524099999999990
C      46.679599999999994     48.413250000000005     47.638899999999992
C      47.512100000000004     47.337650000000011     48.158699999999996
C      46.273099999999999     49.449650000000005     48.569800000000001
C      47.175699999999992     46.886350000000007     49.449299999999994
C      45.944599999999994     49.049850000000006     49.816699999999997
C      46.343000000000004     47.747350000000012     50.232699999999994
C      49.824100000000001     46.264949999999999     45.721099999999993
H      47.440200000000004     47.235050000000001     44.721899999999991
H      48.450699999999998     48.409150000000011     44.705599999999997
H      49.346999999999994     46.055350000000004     48.036699999999996
H      45.641599999999997     47.510249999999999     45.881199999999993
H      45.834199999999996     49.255250000000004     45.686399999999992
H      45.984399999999994     50.540649999999999     47.975999999999992
H      47.750299999999996     46.004950000000008     49.908100000000005
H      45.516999999999996     49.731350000000006     50.656599999999997
H      46.181299999999993     47.644550000000010     51.324600000000004
H      49.972700000000003     46.823550000000012     44.675399999999996
H      50.483000000000004     45.459350000000001     46.325599999999994
