22

C      46.355449999999990     47.756549999999997     49.664000000000001
C      47.494749999999982     48.334950000000006     50.581700000000005
C      46.938350000000000     46.956150000000008     48.429200000000009
C      48.877049999999997     48.480150000000009     49.791600000000003
C      47.901349999999994     47.876350000000002     47.624400000000009
C      48.734949999999998     48.647250000000000     48.283000000000008
C      47.823249999999987     47.748950000000008     46.178000000000004
C      49.488450000000000     49.606750000000005     47.585000000000008
C      48.404349999999994     48.833250000000007     45.536200000000008
C      49.456750000000000     49.610250000000008     46.187100000000008
H      45.799449999999993     47.226650000000006     50.456900000000005
H      45.662250000000000     48.572350000000000     49.240100000000005
H      47.731349999999992     47.793149999999997     51.532599999999995
H      47.230549999999994     49.366950000000003     50.709600000000002
H      47.216949999999997     45.780450000000002     49.037900000000008
H      46.211649999999992     46.675449999999998     47.740100000000005
H      49.430249999999987     47.618150000000000     49.878400000000006
H      49.342149999999990     49.284149999999997     50.077000000000005
H      47.207349999999991     47.335949999999997     45.418500000000009
H      50.337750000000000     50.216750000000005     48.139900000000004
H      48.089749999999995     48.829050000000009     44.467400000000005
H      50.137949999999989     50.219549999999998     45.598500000000008
