62

C      43.595349999999996     48.472799999999992     48.431749999999994
C      42.213850000000001     48.173600000000000     49.096750000000000
C      44.375650000000000     44.130199999999995     49.802949999999996
C      44.697550000000000     47.533999999999999     48.505249999999990
C      42.191049999999997     46.913099999999993     49.703449999999989
C      45.298949999999998     45.116800000000005     49.056749999999994
C      43.422850000000004     44.790900000000001     50.438450000000003
C      44.413850000000004     46.293799999999997     48.869949999999989
C      43.194049999999997     46.072600000000001     49.790449999999993
C      43.588550000000005     49.449899999999992     47.393850000000000
C      42.391849999999998     50.133000000000003     47.246849999999995
C      41.078049999999998     48.829500000000003     48.639349999999993
C      44.811550000000004     49.891100000000002     46.700850000000003
C      44.874050000000004     51.101499999999994     45.871150000000000
C      43.453150000000001     51.374800000000000     45.647149999999996
C      46.042549999999999     49.418100000000003     47.070149999999998
C      45.968150000000001     47.978500000000004     47.862849999999995
C      47.648149999999994     46.123799999999996     48.887549999999990
C      46.659150000000004     45.096100000000000     49.257549999999995
C      46.009350000000005     51.562300000000000     45.103549999999998
C      47.202850000000005     50.999099999999991     45.589249999999993
C      47.205850000000005     49.931099999999994     46.508849999999995
C      42.384049999999995     43.923099999999998     51.302349999999990
C      49.079050000000002     45.668900000000001     49.000649999999993
C      47.178149999999995     47.431300000000000     48.226249999999993
C      43.290849999999999     52.340699999999991     44.465750000000000
C      50.282850000000003     46.516200000000005     49.027050000000003
C      52.907450000000004     48.295899999999996     50.053949999999986
C      51.436749999999996     45.789200000000001     48.667450000000002
C      53.507349999999995     47.631799999999991     49.063350000000000
C      52.710050000000003     46.341900000000003     48.584350000000001
C      54.734450000000002     47.963299999999997     48.110550000000003
C      53.747049999999994     45.402700000000003     48.712549999999993
C      55.796749999999996     46.925599999999996     48.386049999999997
C      55.159150000000004     45.735999999999997     48.725749999999991
H      54.566349999999993     48.114500000000000     46.947549999999993
H      44.566949999999999     42.976800000000004     49.945549999999997
H      41.293849999999999     46.311399999999999     50.242549999999994
H      44.029950000000007     53.023199999999996     44.568349999999995
H      42.259350000000005     52.889699999999998     44.405649999999994
H      48.064249999999994     49.315899999999992     46.672749999999994
H      39.202350000000003     48.808699999999995     48.694049999999990
H      41.527849999999994     44.344799999999999     51.266049999999993
H      42.321350000000002     43.821199999999997     52.497450000000001
H      46.917149999999999     44.015099999999997     49.685449999999989
H      49.359149999999993     44.631599999999999     49.281849999999991
H      48.038149999999995     47.856100000000005     47.602049999999991
H      46.049950000000003     52.308699999999995     44.278849999999991
H      47.776350000000001     51.327499999999993     44.745849999999990
H      43.105950000000000     51.854899999999994     43.502549999999999
H      50.414750000000005     47.626799999999996     48.809950000000001
H      52.093449999999997     47.931000000000004     50.686449999999994
H      53.385849999999998     49.396599999999999     50.180250000000001
H      54.816650000000003     49.166999999999994     48.672149999999988
H      53.525849999999998     44.188600000000001     48.538849999999996
H      56.797649999999997     46.744999999999997     47.944649999999996
H      55.860250000000001     44.763399999999997     48.611249999999998
H      51.508050000000004     44.795700000000004     48.938450000000003
H      42.253849999999993     42.996800000000000     50.603049999999996
N      41.234850000000002     49.737299999999998     47.786450000000002
N      42.412050000000001     51.077300000000001     46.272949999999994
O      39.885950000000001     48.488499999999995     49.269549999999995
