15

C      46.562715999999995     46.019849999999991     47.425849999999990
C      49.321355999999994     48.547950000000000     48.526449999999997
C      48.673696000000007     47.461950000000009     48.082850000000001
C      48.627696000000000     49.815550000000002     48.777950000000004
C      47.287776000000008     47.378250000000001     47.612249999999989
C      47.241585999999998     49.806950000000008     48.223549999999989
C      46.696075999999991     48.639150000000001     47.684750000000001
H      47.344256000000001     45.265149999999998     47.066350000000000
H      45.901882999999998     46.013950000000001     46.595649999999999
H      46.124136000000007     45.758449999999996     48.153949999999995
H      50.405785999999992     48.515349999999991     48.445849999999993
H      49.003775999999988     50.609550000000006     49.404350000000001
H      49.433245999999997     46.693550000000002     47.687449999999998
H      46.652906000000002     50.734850000000002     48.484949999999998
H      45.594214000000008     48.582050000000002     47.316150000000000
