16

C      47.804999999999993     48.552649999999993     46.197099999999992
C      45.842199999999991     47.279949999999999     47.830400000000004
C      48.265099999999990     48.103650000000002     47.268399999999993
C      47.227699999999999     47.440950000000001     48.148199999999996
C      49.534599999999998     48.174750000000003     47.715100000000000
C      47.418099999999995     47.295549999999999     49.574800000000003
C      49.786499999999990     47.774749999999997     49.104899999999994
C      48.785599999999988     47.226050000000001     49.954200000000000
H      48.254499999999993     48.434350000000002     45.004200000000004
H      46.877600000000001     48.930149999999998     46.195000000000000
H      45.411199999999994     47.617750000000001     46.894600000000004
H      45.030799999999999     47.111350000000002     48.465399999999995
H      50.094899999999981     49.062950000000001     47.545899999999996
H      46.696999999999989     47.045050000000003     50.397700000000007
H      50.969200000000001     47.906350000000003     49.332199999999993
H      49.031399999999991     46.937049999999999     50.995799999999996
