15

C      48.191349999999993     49.160649999999990     46.518249999999995
C      49.282049999999998     48.642150000000001     48.794950000000007
C      47.184349999999995     48.218050000000005     47.141749999999995
C      47.966749999999998     48.137250000000009     48.315549999999995
C      47.283349999999999     47.439549999999997     49.452750000000002
C      46.426049999999996     46.497550000000004     49.169249999999998
H      49.395350000000001     48.634150000000005     49.928249999999998
H      48.168450000000000     50.244050000000001     47.245250000000006
H      47.958949999999994     49.474650000000011     45.526450000000004
H      50.216250000000002     48.968750000000000     48.370250000000006
H      49.205249999999999     48.781350000000003     46.113650000000000
H      47.447849999999995     47.771650000000008     50.473549999999996
H      45.783749999999998     45.755949999999999     49.643450000000009
H      46.403050000000000     47.534250000000000     46.677649999999993
H      46.436650000000000     46.139049999999997     48.102350000000008
