21

C      49.481299999999997     45.885399999999997     49.064849999999993
C      49.663799999999995     44.544700000000006     49.333350000000010
C      46.034800000000004     48.260300000000001     46.863150000000005
C      48.438700000000004     46.555099999999996     48.094149999999999
C      47.115500000000004     48.885099999999994     47.646450000000002
C      48.224700000000006     48.084699999999998     48.399850000000001
C      46.914800000000007     50.268500000000003     47.460549999999998
C      48.960700000000003     49.002099999999999     49.233150000000009
C      47.778500000000001     50.900099999999995     48.453350000000000
C      48.938400000000001     50.432299999999998     49.080050000000014
H      45.294700000000006     49.046800000000005     46.513850000000005
H      49.972400000000000     46.807100000000005     49.463050000000010
H      50.705299999999994     44.000500000000002     49.634750000000011
H      48.644700000000000     44.038600000000002     49.153550000000010
H      46.226100000000002     47.370099999999994     46.121650000000002
H      47.264400000000002     45.915000000000006     47.933750000000003
H      48.804300000000005     46.409000000000006     46.939250000000001
H      45.923000000000002     50.693299999999994     47.073050000000009
H      49.875699999999995     48.688000000000002     49.878349999999998
H      47.576300000000003     51.999499999999998     48.349249999999998
H      49.500300000000010     51.270600000000002     49.725250000000003
