25

C      45.312999999999995     49.558649999999986     49.968999999999994
C      49.419600000000003     47.139250000000004     45.866000000000000
C      50.074900000000000     46.331149999999994     47.075400000000002
C      48.518299999999996     48.352850000000004     46.057200000000002
C      50.703400000000002     47.459350000000001     48.151899999999998
C      48.350499999999997     48.557649999999995     47.588799999999999
C      49.501099999999994     48.299149999999997     48.512799999999999
C      47.082599999999999     48.990449999999996     47.850800000000000
C      49.257800000000003     49.106250000000003     49.706099999999999
C      46.690299999999993     49.199550000000002     49.215200000000003
C      47.888800000000003     49.029049999999998     50.031900000000000
H      45.282300000000006     49.147849999999991     50.957900000000002
H      45.247199999999992     50.546949999999995     50.002100000000006
H      44.417699999999996     49.067449999999994     49.400599999999997
H      48.856799999999993     46.135649999999998     45.333900000000000
H      49.979299999999995     47.739949999999993     44.775900000000000
H      50.592900000000000     45.453050000000005     46.714199999999998
H      49.271599999999992     45.679050000000004     47.488100000000003
H      47.624600000000001     48.351950000000002     45.658999999999999
H      49.083200000000005     49.319149999999993     45.839500000000001
H      51.582300000000004     47.860649999999993     47.594799999999999
H      50.895300000000006     47.176549999999992     49.375300000000003
H      46.084099999999992     49.125050000000002     47.395099999999999
H      49.997000000000000     49.354150000000004     50.304200000000002
H      47.912499999999994     49.178849999999997     51.224100000000000
