17

C      46.182549999999992     46.583517449999995     47.981104999999999
C      45.860750000000003     50.183317450000004     48.864854999999999
C      46.966850000000001     47.899017450000002     48.205855000000007
C      46.457249999999995     49.133717449999992     48.483155000000004
C      48.370750000000008     47.688417450000003     48.256655000000002
C      49.391150000000003     45.622417450000000     46.834935000000002
C      49.601750000000003     47.347617450000001     48.097355000000000
C      49.886949999999999     46.740617450000002     46.740955000000007
H      50.290849999999999     47.555417449999993     48.806255000000000
H      45.557350000000000     46.350117449999999     48.909754999999997
H      46.863650000000000     45.805817449999992     47.619575000000005
H      45.287150000000004     50.046917449999995     49.854854999999993
H      45.472650000000002     46.951017449999995     47.333555000000004
H      50.712849999999996     47.177017449999994     46.145145000000007
H      49.784250000000000     44.751517449999994     47.395455000000005
H      48.224150000000002     45.429017450000003     46.467775000000003
H      46.036049999999996     51.248482550000006     48.658255000000004
