18

C      47.850899999999996     49.877899999999997     46.926799999999993
C      50.076000000000001     48.128000000000000     48.508499999999998
C      47.559099999999994     48.676700000000004     47.803600000000003
C      48.581499999999998     47.922200000000004     48.311399999999992
C      46.262800000000006     48.134599999999999     48.086600000000004
C      48.374000000000002     46.675200000000004     48.986000000000004
C      46.061200000000007     47.169100000000000     48.952100000000002
C      47.076299999999996     46.268000000000001     49.396900000000002
H      50.231199999999994     47.897300000000001     49.565100000000001
H      48.532199999999996     49.754800000000003     46.018500000000003
H      46.960100000000004     50.644500000000001     46.900300000000001
H      48.830199999999998     50.303900000000006     47.403999999999996
H      50.229999999999997     49.189300000000003     48.154299999999992
H      50.807899999999997     47.965400000000002     47.712800000000001
H      45.472699999999996     48.606700000000004     47.391899999999993
H      49.208700000000000     46.119599999999998     49.391800000000003
H      45.192100000000003     46.793600000000005     49.342600000000004
H      46.767299999999999     45.355499999999999     49.981499999999997
