24

C      50.449149999999989     45.267954999999994     49.640249999999995
C      48.845849999999999     45.116105000000005     49.570149999999998
C      47.229849999999999     46.413945000000012     47.650450000000006
C      47.926850000000002     48.517435000000006     45.961550000000003
C      46.737350000000006     47.784825000000005     47.926450000000003
C      47.168750000000003     48.750405000000001     46.992150000000009
C      45.757950000000008     48.090244999999996     48.891750000000002
C      46.867649999999998     50.125655000000002     47.310950000000005
C      45.604650000000007     49.444185000000004     49.224249999999998
C      46.161749999999998     50.526355000000002     48.388850000000005
C      46.672350000000009     45.371224999999995     48.504450000000006
H      51.002150000000000     45.845725000000002     48.867050000000006
H      50.356150000000000     44.436695000000000     48.715550000000007
H      47.659050000000008     46.149415000000005     46.616950000000003
H      48.366749999999996     47.540255000000002     45.447450000000003
H      48.253550000000004     49.366285000000005     45.446449999999999
H      45.299050000000008     47.352345000000000     49.652650000000008
H      46.930549999999997     50.984855000000003     46.537750000000003
H      44.982349999999997     49.392245000000003     50.193650000000005
H      46.096649999999997     51.620654999999999     48.662050000000008
H      45.770049999999998     45.706765000000004     49.112449999999995
H      46.434049999999999     44.379345000000001     47.807450000000003
H      51.017650000000003     44.885365000000000     50.553550000000001
O      47.664550000000006     44.896755000000006     49.734150000000000
