22

C      49.900549999999988     49.233799999999988     48.103499999999990
C      48.772349999999996     50.360300000000002     48.132500000000000
C      49.473149999999997     47.966100000000004     48.922100000000000
C      47.297449999999998     49.784799999999997     48.497300000000003
C      48.215249999999997     47.412600000000005     48.291200000000003
C      47.213149999999999     48.294499999999992     48.052599999999998
C      47.992049999999999     45.983600000000003     48.194999999999993
C      46.006650000000000     47.930100000000003     47.249400000000001
C      47.121150000000000     45.678400000000003     47.189000000000000
C      46.082549999999998     46.607199999999999     46.665500000000002
H      49.750050000000002     48.772100000000002     47.113600000000005
H      50.851150000000004     49.646700000000003     48.350800000000000
H      48.839649999999999     51.391799999999996     48.555400000000006
H      48.808149999999998     50.639999999999993     47.064800000000005
H      49.322550000000000     48.129399999999997     50.038300000000000
H      50.365349999999992     46.944399999999995     49.127499999999998
H      46.369650000000000     50.354099999999995     48.329200000000000
H      47.396249999999995     49.802199999999992     49.517799999999994
H      48.861649999999997     45.353699999999996     48.580100000000002
H      45.148849999999996     48.670799999999993     46.901800000000001
H      46.613849999999999     44.608200000000004     46.832999999999998
H      45.496049999999997     46.100699999999996     45.961700000000000
