22

C      50.625409999999988     47.361399999999989     47.801079999999992
C      50.431510000000003     48.907200000000003     47.900329999999997
C      49.375110000000006     46.677300000000002     48.406790000000001
C      49.000910000000005     49.544400000000010     47.849339999999998
C      48.093410000000006     47.451000000000008     48.446619999999996
C      47.869110000000006     48.830100000000002     48.586810000000000
C      47.004509999999996     46.499399999999994     48.393229999999988
C      46.570509999999999     49.276700000000005     48.938959999999994
C      45.753709999999998     46.990499999999997     48.792509999999993
C      45.447209999999998     48.471400000000003     48.878740000000001
H      50.618110000000001     46.785200000000003     46.418469999999999
H      51.613110000000006     47.051800000000000     48.257999999999996
H      50.837909999999994     49.334299999999999     48.911969999999997
H      50.918509999999998     49.357699999999994     47.183489999999999
H      48.815510000000003     45.828599999999994     48.126199999999997
H      49.425709999999995     46.519800000000004     49.533739999999995
H      48.812210000000007     50.562700000000007     47.594919999999995
H      49.143209999999996     50.424599999999998     48.896739999999994
H      47.290509999999998     45.437299999999993     47.828229999999991
H      46.631910000000005     50.314200000000000     49.088839999999990
H      45.120220000000003     46.612200000000001     49.581530000000001
H      44.386889999999994     48.853200000000001     49.289090000000002
