26

C      47.825599999999987     46.477149999999988     46.673684999999999
C      50.751999999999995     46.239649999999997     47.943084999999996
C      48.845199999999991     47.545450000000002     46.780385000000010
C      50.063099999999991     47.611050000000006     47.610285000000005
C      48.581499999999991     48.523349999999994     45.743985000000009
C      50.931200000000004     48.581049999999991     46.983485000000002
C      49.122900000000001     49.836750000000009     45.672085000000010
C      50.411299999999997     49.738650000000000     46.328485000000001
C      45.053399999999996     45.924749999999996     50.041003000000018
C      46.102300000000000     46.547449999999998     50.065927000000016
C      47.102199999999996     46.017350000000000     47.751885000000001
C      47.392200000000003     46.380949999999999     49.195284999999998
H      51.300600000000003     46.433249999999994     48.846185000000006
H      47.457799999999992     46.034250000000000     45.842285000000004
H      51.224199999999996     46.391749999999995     46.938685000000007
H      50.110100000000003     45.363149999999997     47.993285000000000
H      48.066400000000002     47.894950000000009     44.981684999999999
H      51.874600000000001     48.613049999999987     47.537185000000008
H      49.018699999999995     50.776650000000004     45.029385000000005
H      50.938999999999993     50.745750000000001     46.259585000000001
H      45.075000000000003     45.223349999999996     49.235185000000001
H      44.125399999999999     45.811349999999997     50.654545000000013
H      46.190199999999990     47.035249999999998     51.018315000000001
H      46.454799999999992     45.282449999999997     47.843085000000002
H      48.116000000000000     45.675449999999998     49.626074000000010
H      47.928100000000001     47.484949999999998     48.986384999999999
