17

C      49.039699999999996     46.310099999999991     46.993449999999996
C      46.986700000000006     45.999400000000001     49.136150000000001
C      48.269300000000008     47.569700000000005     47.256150000000005
C      47.533000000000008     47.302700000000009     48.471950000000007
C      47.987800000000007     48.736100000000000     46.404650000000004
C      47.458000000000006     48.594600000000007     49.041750000000022
C      48.001300000000008     50.010799999999996     47.034050000000008
C      47.567500000000003     49.777600000000000     48.386450000000011
H      46.942100000000003     46.280300000000004     50.295349999999999
H      49.874699999999997     46.240800000000000     46.263150000000010
H      49.231800000000007     45.368299999999998     47.592550000000003
H      47.530100000000004     45.150799999999997     48.800150000000016
H      46.125300000000003     45.488099999999996     48.816850000000017
H      48.697800000000008     48.601400000000005     45.704650000000001
H      47.320200000000007     48.638200000000005     50.034949999999995
H      47.734300000000005     50.849200000000003     46.407150000000001
H      47.060500000000005     50.446300000000001     49.148449999999997
