19

C      50.512649999999994     48.766000000000005     46.114399999999989
C      49.775450000000006     47.988400000000006     46.934300000000000
C      45.841750000000005     46.259500000000010     49.073699999999995
C      48.646950000000004     48.280900000000010     47.822399999999995
C      47.653050000000007     47.299300000000009     48.017499999999991
C      48.672449999999998     49.578900000000012     48.526800000000001
C      46.667250000000010     47.488400000000006     48.940999999999995
C      47.651650000000004     49.679500000000012     49.587499999999999
C      46.671950000000010     48.594600000000007     49.732999999999997
H      50.146450000000002     49.833200000000012     46.268999999999998
H      51.270650000000003     48.085600000000007     45.675300000000000
H      46.002650000000003     45.859800000000000     50.242599999999989
H      50.033850000000001     46.991400000000006     46.320399999999999
H      47.985250000000008     46.367400000000011     47.556099999999994
H      46.404449999999997     45.505800000000001     48.464599999999997
H      49.261150000000001     50.473100000000009     48.237800000000000
H      44.729349999999997     46.453800000000008     48.905200000000001
H      47.496150000000000     50.494199999999999     50.281399999999998
H      45.955950000000001     48.887800000000006     50.324700000000000
