5

C      48.165699999999994     48.021649999999987     48.199599999999997
H      48.506499999999996     48.897649999999999     48.826200000000000
H      47.117300000000000     48.326049999999995     48.504500000000000
H      48.542900000000003     48.094149999999999     47.173800000000000
H      48.882700000000000     47.102350000000001     48.532299999999992
