40

C      47.750349999999990     46.840049999999991     47.513449999999992
C      47.149949999999997     45.842050000000000     48.198750000000004
C      46.954650000000001     45.857450000000000     52.579750000000004
C      48.052250000000001     48.223550000000003     48.154049999999998
C      46.955449999999999     45.943950000000001     49.673349999999999
C      47.625450000000001     49.805350000000004     49.872150000000005
C      46.919150000000002     46.934250000000006     51.674350000000004
C      47.665349999999997     48.443049999999999     49.473749999999995
C      47.179650000000002     47.090250000000012     50.233649999999997
C      48.137050000000002     46.541350000000008     46.171049999999994
C      47.946149999999996     45.317149999999998     45.558350000000004
C      47.273949999999999     44.299850000000006     46.398949999999999
C      47.051349999999999     44.482550000000003     47.742249999999984
C      48.764750000000006     47.549250000000001     45.271450000000002
C      49.314849999999993     47.265950000000004     43.972549999999998
C      49.041750000000000     45.964150000000004     43.576049999999995
C      48.645049999999998     44.867050000000006     44.376649999999998
C      48.865249999999989     48.849050000000005     45.862949999999998
C      48.640850000000000     49.151049999999998     47.305049999999994
C      48.675950000000000     50.554749999999999     47.799149999999997
C      48.237850000000002     50.835350000000005     49.092550000000003
C      49.024050000000003     51.726450000000000     46.901150000000001
C      47.194649999999996     50.257450000000006     51.232349999999997
H      47.355550000000001     43.363849999999999     46.128050000000002
H      47.046149999999997     51.421350000000004     51.313849999999988
H      46.543549999999996     45.122950000000003     50.122349999999997
H      46.265149999999998     45.402650000000008     53.279250000000005
H      46.649250000000002     47.754750000000001     52.379350000000002
H      46.600949999999997     43.732050000000001     48.334649999999996
H      49.417850000000001     45.384749999999997     42.720749999999995
H      49.091149999999999     43.853949999999998     44.175950000000000
H      49.335850000000001     49.684950000000001     45.451349999999991
H      48.242150000000009     51.881150000000005     49.733350000000002
H      48.186049999999994     52.636150000000001     46.940749999999994
H      49.431049999999999     51.358750000000001     45.903449999999992
H      49.929749999999999     52.126249999999999     47.284649999999999
H      47.759450000000001     45.041250000000005     52.852949999999993
H      46.070250000000001     49.933650000000000     51.618650000000002
H      47.830649999999999     49.804450000000003     52.163249999999991
O      49.918749999999996     48.134950000000003     43.399050000000003
