18

C      50.049050000000001     49.802399999999992     47.789000000000001
C      50.486050000000006     48.584200000000003     47.267800000000008
C      48.906750000000002     49.904499999999992     48.572100000000006
C      49.677750000000003     47.402499999999996     47.380000000000010
C      48.048650000000009     48.706200000000003     48.525900000000007
C      48.400350000000003     47.391200000000005     47.995199999999997
C      46.781550000000010     48.908799999999992     49.054400000000001
C      47.566050000000004     46.246099999999991     47.993700000000004
C      45.815449999999998     47.957699999999996     48.663100000000000
C      46.213450000000009     46.712100000000000     48.171700000000001
H      50.556849999999997     50.709700000000005     47.697200000000009
H      51.341650000000001     48.591599999999993     46.676200000000009
H      46.109350000000006     49.821999999999996     49.187799999999996
H      48.600549999999998     50.700700000000005     49.323799999999991
H      50.306049999999999     46.482700000000001     46.800800000000010
H      44.658349999999999     47.959499999999998     48.894000000000005
H      47.892049999999998     45.290299999999995     47.483699999999999
H      45.298349999999999     45.862299999999998     47.788499999999999
