6

C      47.883949999999984     48.031349999999996     47.408399999999993
C      47.824249999999999     48.307850000000002     48.769900000000007
H      49.060150000000000     48.275950000000002     46.982000000000014
H      47.069449999999996     48.141649999999998     46.632700000000000
H      48.640249999999988     47.692149999999998     49.179500000000004
H      46.939850000000000     48.232550000000003     49.367300000000000
