22

C      45.247399999999999     47.618499999999997     47.499299999999991
C      46.064300000000003     46.305900000000001     47.529399999999995
C      46.406400000000005     48.950800000000008     47.411299999999997
C      46.937600000000003     46.259000000000007     48.720599999999990
C      47.609600000000000     48.640999999999998     48.147199999999998
C      47.846999999999994     47.393800000000006     48.805599999999984
C      48.498500000000007     49.791600000000010     48.379999999999995
C      49.260800000000003     47.272700000000007     49.107099999999988
C      49.825000000000003     49.623300000000008     48.637799999999999
C      50.323800000000006     48.250500000000009     48.936899999999994
H      44.596500000000006     47.843600000000002     48.410699999999991
H      44.764400000000009     47.684900000000006     46.603600000000000
H      45.533500000000004     45.360300000000002     47.614699999999999
H      46.664099999999991     46.447800000000008     46.609299999999990
H      45.958799999999997     49.872400000000006     47.876599999999996
H      46.354500000000002     49.173999999999999     46.316299999999998
H      46.975700000000003     45.158600000000000     49.041599999999988
H      46.255200000000002     46.470800000000004     49.683700000000002
H      48.200000000000003     50.841400000000000     47.743799999999993
H      49.461799999999997     46.219200000000008     49.623999999999995
H      50.472400000000007     50.494900000000008     48.929800000000000
H      51.403499999999994     47.848200000000013     48.777599999999993
