6

C      47.475849999999994     48.400849999999991     47.781700000000001
C      48.060650000000003     47.450649999999996     48.480700000000006
H      47.370650000000005     49.432550000000006     48.238199999999999
H      47.047249999999998     48.277749999999997     46.829000000000001
H      48.109850000000002     46.567449999999994     48.150100000000002
H      48.952750000000002     47.660749999999993     49.170999999999999
