5

C      47.834049999999991     47.822049999999990     47.807549999999992
H      47.612949999999998     48.834150000000001     47.563949999999991
H      48.919250000000005     47.555249999999994     47.999549999999999
H      47.249150000000000     47.911549999999998     48.743650000000002
H      47.080749999999995     47.165849999999999     47.256349999999998
