6

C      47.899149999999992     47.583549999999995     47.411299999999997
C      48.409649999999999     48.457350000000005     48.301800000000000
H      47.590350000000001     46.395949999999999     47.610599999999991
H      47.678449999999998     48.020949999999999     46.561700000000002
H      48.142249999999997     48.268450000000001     49.438299999999998
H      48.370749999999994     49.604050000000001     47.756799999999998
