42

C      47.845199999999991     47.778449999999992     49.265499999999996
C      46.989500000000000     47.659349999999989     50.313000000000002
C      44.582799999999999     50.691449999999989     47.575400000000002
C      47.318000000000005     48.200249999999997     47.877799999999993
C      45.861499999999999     48.690249999999992     50.360699999999994
C      45.451900000000002     49.871749999999992     46.755899999999997
C      44.641200000000005     50.389649999999989     48.989599999999996
C      46.166400000000003     49.003050000000002     47.782399999999996
C      45.483600000000003     49.239849999999990     49.124799999999993
C      48.853500000000004     46.769649999999999     49.222200000000001
C      49.187700000000000     45.680449999999993     50.203800000000001
C      47.978700000000011     45.540549999999996     50.933700000000002
C      47.435800000000008     46.746549999999999     51.391499999999994
C      49.661500000000011     46.527349999999998     48.014799999999994
C      51.103100000000005     44.972749999999991     49.079700000000003
C      49.282200000000010     47.141750000000002     46.811199999999999
C      48.267500000000005     48.144849999999991     46.855699999999999
C      48.187900000000006     49.428249999999991     46.114800000000002
C      45.188200000000002     49.681949999999986     45.296499999999995
C      49.004000000000012     49.404549999999986     44.982100000000003
C      45.053800000000003     48.422749999999994     44.921999999999997
C      43.797100000000007     51.777450000000002     46.787999999999997
C      52.238700000000001     43.946849999999998     48.981399999999994
H      53.211199999999998     44.324249999999992     49.518299999999996
H      45.485800000000005     49.096249999999984     51.263199999999998
H      44.242400000000011     50.954349999999991     49.730499999999992
H      47.616599999999998     44.684049999999999     51.500599999999991
H      46.888600000000004     46.233449999999991     52.231200000000001
H      49.875599999999999     47.051149999999993     45.907799999999995
H      45.305900000000001     50.566649999999996     44.521900000000002
H      49.194400000000009     50.214550000000003     44.270600000000002
H      47.567900000000002     50.351749999999996     46.497799999999998
H      48.877900000000004     48.358350000000002     44.598500000000001
H      45.140900000000009     48.125349999999983     43.768799999999999
H      44.732700000000001     47.658149999999992     45.691000000000003
H      42.788800000000002     51.837449999999990     46.233199999999997
H      43.360700000000001     51.977249999999998     47.653899999999993
H      52.161100000000012     43.390850000000000     49.926999999999992
H      52.064399999999999     43.234949999999998     48.213999999999999
H      43.848600000000012     52.765050000000002     46.251999999999995
N      50.732500000000009     45.729450000000000     48.052199999999999
N      50.279500000000006     44.835049999999995     50.003100000000003
