41

C      48.548699999999997     49.336449999999992     48.921649999999993
C      47.603900000000003     48.754450000000006     49.942949999999996
C      45.683800000000005     46.662549999999996     46.140550000000005
C      44.851300000000002     46.357450000000000     47.378749999999997
C      48.027600000000000     49.544049999999999     47.529550000000000
C      46.854300000000002     47.574449999999999     46.290250000000000
C      44.887800000000006     47.479050000000001     48.214150000000004
C      46.922100000000007     48.479950000000002     47.347549999999998
C      46.163800000000002     48.189149999999998     48.530950000000004
C      49.920000000000009     49.604150000000004     49.284350000000003
C      49.952400000000004     50.232950000000002     50.686750000000004
C      48.950600000000001     50.148849999999996     51.648449999999997
C      47.996600000000008     49.166849999999997     51.293250000000000
C      45.596000000000004     46.083050000000000     44.883449999999996
C      44.626300000000008     45.079149999999998     45.086050000000000
C      43.478600000000007     44.953450000000004     45.972949999999997
C      43.560400000000008     45.689949999999996     47.097949999999997
C      51.021800000000006     49.383650000000003     48.575649999999996
C      52.179700000000004     49.943449999999999     49.167950000000005
C      52.284900000000000     50.719849999999994     50.368449999999996
C      51.079900000000002     50.751649999999998     51.193550000000002
C      43.717700000000001     47.981349999999999     49.096549999999993
H      47.382000000000005     48.988450000000000     52.192350000000005
H      44.747900000000008     44.589150000000004     44.060649999999995
H      42.497700000000002     44.482349999999997     45.779449999999997
H      42.942600000000006     45.598349999999996     48.001549999999995
H      53.035500000000006     50.013450000000006     48.687449999999998
H      53.502299999999998     50.848849999999999     50.707549999999998
H      51.109400000000001     51.284450000000007     52.062950000000001
H      49.032700000000013     51.517650000000003     53.116150000000005
H      47.738199999999999     47.561949999999996     45.550650000000005
H      45.652700000000003     46.163049999999998     42.883849999999995
H      50.480300000000007     48.261949999999999     47.069749999999999
H      43.116900000000008     47.323850000000000     49.666950000000000
H      42.732700000000001     48.578249999999997     48.773449999999997
H      44.108900000000006     48.751950000000001     49.544449999999998
N      46.351700000000001     48.406950000000002     49.798149999999993
O      49.061100000000003     50.509249999999994     53.001149999999996
O      48.611100000000000     50.312749999999994     46.795749999999998
O      46.280600000000000     46.383250000000004     43.650250000000000
O      51.383000000000003     48.738150000000005     47.401849999999996
