16

C      46.210650000000001     48.878899999999987     46.952164499999988
C      46.626350000000009     46.423000000000002     48.750564499999996
C      47.319650000000003     48.543599999999998     47.831264499999996
C      47.292450000000009     47.495500000000007     48.746264499999995
C      48.470250000000000     49.488700000000009     47.662684499999997
C      48.509450000000008     47.127499999999998     49.485384499999995
C      49.514550000000007     49.199200000000005     48.487084500000009
C      49.619250000000001     47.809600000000003     48.959864499999995
H      46.208050000000007     49.072700000000012     45.828805500000001
H      45.239150000000002     49.374899999999997     47.479664499999998
H      47.269849999999998     45.565200000000004     48.978134499999996
H      45.686050000000002     46.472700000000003     48.207414499999999
H      48.652050000000010     50.434799999999996     46.952994500000003
H      48.483049999999999     46.260800000000003     50.171194499999999
H      50.228450000000002     49.863500000000002     48.753864500000006
H      50.760849999999998     47.582700000000003     49.108484500000003
