6

C      48.325849999999988     47.798549999999985     48.592599999999990
C      48.357250000000001     48.545649999999995     47.620799999999996
H      47.895849999999996     48.359949999999998     49.468200000000003
H      48.473749999999988     46.761849999999995     48.194199999999995
H      48.561650000000000     48.220349999999996     46.531799999999997
H      47.438350000000000     49.238150000000005     47.501499999999993
