5

C      47.770457999999984     47.840549999999993     47.821799999999982
H      47.245330000000010     47.129449999999999     47.036599999999993
H      47.461330000000018     47.995449999999998     48.963400000000007
H      47.295830000000002     48.870550000000001     47.836699999999993
H      48.754669999999990     47.623249999999999     47.822900000000004
