50

C      47.205949999999994     46.088899999999995     47.726669999999991
C      47.919049999999999     46.091100000000004     48.988900000000001
C      46.677750000000003     50.438000000000002     48.406890000000004
C      46.647149999999996     47.158300000000004     47.017080000000000
C      48.138449999999992     47.417800000000007     49.636009999999999
C      46.069450000000003     49.535500000000006     47.466740000000001
C      47.548550000000006     50.094400000000000     49.468870000000003
C      46.859150000000000     48.387000000000000     47.905329999999999
C      47.599049999999991     48.610800000000005     49.155490000000000
C      47.379149999999996     44.938000000000002     46.882540000000006
C      47.827250000000006     43.669000000000004     47.535670000000003
C      47.868749999999991     43.565300000000001     48.937870000000004
C      48.042850000000001     44.814700000000002     49.653610000000000
C      47.078749999999999     44.996200000000002     45.480510000000002
C      47.280549999999991     43.865400000000001     44.698329999999999
C      48.042749999999998     42.708900000000000     45.163190000000000
C      48.083649999999999     42.497900000000001     46.619820000000004
C      46.593350000000001     46.233300000000000     44.736609999999999
C      46.138449999999999     47.225300000000011     45.675049999999999
C      45.706150000000001     48.563499999999998     45.189080000000004
C      44.996949999999998     49.253399999999992     46.510310000000004
C      48.592150000000004     50.931000000000004     50.170360000000002
C      47.974950000000007     45.232199999999999     51.131569999999996
C      46.986249999999998     44.913000000000004     52.054640000000006
C      49.936350000000004     51.235199999999999     49.876100000000008
C      50.444050000000004     52.198500000000003     50.706240000000008
C      51.148750000000007     51.949300000000001     51.683040000000005
C      50.821650000000005     53.607500000000002     50.168070000000000
H      50.847549999999998     54.578200000000002     50.780929999999998
H      47.219349999999999     43.132100000000001     43.014060000000001
H      44.340649999999997     49.744399999999999     45.837029999999999
H      46.537250000000000     51.729399999999991     48.250960000000006
H      48.272350000000003     51.521200000000000     51.060950000000005
H      48.109250000000003     42.561100000000003     49.149429999999995
H      48.646749999999997     42.130699999999997     44.413850000000004
H      48.313549999999999     41.421799999999998     46.855840000000001
H      47.117049999999999     46.606999999999999     43.763539999999999
H      44.930949999999996     48.326900000000002     44.399329999999999
H      44.053150000000002     49.203000000000010     47.203400000000002
H      46.492449999999998     49.282200000000003     45.044010000000000
H      48.609949999999998     47.310200000000002     50.620739999999998
H      46.999949999999998     45.189599999999999     52.985939999999999
H      45.797049999999999     44.679099999999998     51.700140000000005
H      48.835650000000001     45.640900000000002     51.507739999999998
H      50.588149999999999     51.158800000000006     48.886470000000003
H      50.731250000000003     50.994500000000009     52.195940000000007
H      51.946849999999998     52.657999999999994     51.948340000000002
H      51.731250000000003     53.594199999999994     49.469459999999998
H      49.868750000000006     53.234900000000003     49.515610000000002
O      46.771950000000004     43.768900000000002     43.497610000000002
