8

C      47.670449999999995     47.332346499999993     47.602800000000002
C      48.215249999999997     48.683386499999997     47.842100000000002
H      48.819949999999992     46.584326500000003     47.678799999999995
H      47.315049999999999     46.556973499999998     46.803300000000007
H      46.735950000000003     47.037446500000001     48.329599999999999
H      47.728349999999992     49.443026500000002     47.281900000000007
H      47.955050000000000     48.854876500000003     49.196699999999993
H      49.264049999999997     48.821046499999994     48.133099999999999
