20

C      49.024199999999986     48.511999999999993     47.847899999999996
C      49.530699999999996     47.353000000000002     46.942500000000010
C      48.882000000000005     46.968299999999999     45.841999999999999
C      47.401899999999998     47.426600000000001     45.650700000000001
C      46.481300000000005     46.660900000000005     46.076900000000009
C      47.753299999999996     48.912199999999999     47.882800000000003
C      49.975799999999992     49.023399999999995     48.922200000000004
C      46.504599999999996     49.438500000000005     47.650200000000012
C      49.799999999999997     48.139600000000002     50.153100000000009
H      50.626599999999996     47.037100000000002     47.325900000000004
H      49.100700000000003     45.984000000000002     45.720800000000011
H      47.362600000000000     48.405700000000003     45.092900000000000
H      45.319800000000001     47.009900000000002     46.063500000000005
H      46.821500000000000     45.840000000000003     46.564200000000000
H      46.043899999999994     50.159999999999997     48.350600000000000
H      46.241000000000000     49.920400000000001     46.741800000000012
H      49.665700000000001     48.831700000000012     50.907100000000000
H      50.680199999999999     47.536600000000000     50.572900000000018
H      49.518000000000001     47.207000000000001     49.578900000000019
O      50.309200000000004     50.146600000000007     48.855600000000010
