6

C      48.217399999999998     48.551849999999995     48.544109999999989
C      48.061800000000005     47.806849999999997     47.544170000000008
H      48.522099999999995     48.077550000000002     49.533169999999998
H      47.477900000000005     49.322050000000004     48.638970000000000
H      48.218500000000006     47.942949999999996     46.466830000000002
H      48.419399999999996     46.677949999999996     47.516549999999995
