62

C      44.664694999999988     45.468299999999992     42.316712999999986
C      45.040974999999989     45.269100000000002     43.791259999999994
C      48.227365000000006     48.051600000000001     44.956949999999992
C      49.509864999999998     48.955800000000004     45.326579999999993
C      47.667564999999996     47.045400000000001     49.650749999999988
C      49.006164999999996     47.620899999999992     49.982149999999990
C      47.557564999999997     47.208500000000001     45.928590000000000
C      49.913865000000001     49.008299999999998     46.639189999999985
C      47.173964999999995     46.807600000000008     48.289529999999999
C      49.623864999999995     48.615700000000004     49.054989999999989
C      48.032865000000001     47.387500000000003     47.317160000000001
C      49.375164999999996     48.296700000000001     47.740309999999994
C      47.459864999999994     48.276100000000000     43.939779999999999
C      48.041364999999999     49.331800000000001     42.808189999999982
C      49.094564999999989     50.191800000000001     43.023819999999986
C      49.737665000000007     49.892799999999994     44.205309999999997
C      46.849665000000002     47.399700000000010     50.821619999999996
C      47.107564999999994     47.582200000000000     52.062849999999997
C      48.446064999999990     47.832200000000000     52.356449999999995
C      49.471665000000002     47.674400000000006     51.379899999999992
C      46.303364999999999     47.615600000000001     43.475759999999994
C      45.701664999999991     47.718599999999995     42.102882999999991
C      46.210065000000000     48.771200000000007     41.338849999999994
C      47.276364999999998     49.638800000000003     41.663755799999990
C      45.985365000000002     46.358400000000003     44.118219999999994
C      46.452964999999992     46.206800000000001     45.595959999999991
C      45.336484999999996     46.609600000000000     46.640799999999999
C      45.750464999999991     46.194400000000002     48.062399999999997
C      50.925964999999991     48.108000000000004     51.451279999999997
C      51.340964999999997     48.966500000000011     52.635149999999996
C      51.565464999999989     47.831800000000001     53.707549999999991
C      51.535664999999995     48.521799999999999     55.145949999999992
C      47.368564999999990     51.142099999999999     41.144749999999988
H      45.351174999999998     44.764899999999997     41.794247999999989
H      43.513835000000000     45.326200000000000     42.608249999999998
H      45.294825000000003     44.262900000000002     44.174539999999993
H      50.725265000000007     49.773699999999998     46.941989999999990
H      50.230765000000005     49.710300000000004     49.486469999999990
H      49.279564999999991     51.067200000000000     42.408094999999989
H      50.855165000000000     50.099000000000004     44.458519999999993
H      45.759864999999998     47.413499999999999     50.336619999999989
H      48.807265000000001     48.420400000000001     53.339549999999988
H      45.398524999999999     48.902400000000000     40.387650000000008
H      46.518864999999998     45.191900000000004     46.096579999999989
H      44.760504999999995     47.626500000000000     46.553169999999994
H      44.320054999999996     46.074500000000000     46.355309999999989
H      45.615264999999994     45.075499999999998     48.252199999999995
H      45.037004999999994     46.861100000000000     48.696410000000000
H      52.163964999999990     49.686300000000003     52.578349999999986
H      50.544664999999995     49.619199999999992     53.212749999999986
H      48.444265000000001     51.361699999999999     40.983450000000005
H      50.577365000000000     47.239200000000011     53.806649999999991
H      52.401264999999995     47.128500000000003     53.485849999999999
H      50.851564999999994     49.109099999999998     55.344349999999991
H      52.486165000000000     49.099800000000002     55.259649999999993
H      51.612764999999996     47.688800000000001     55.911749999999998
H      47.104965000000007     51.122300000000003     40.088250000000002
H      46.630865000000000     51.737099999999998     41.526050000000005
H      46.454965000000001     48.675000000000011     53.474949999999993
O      51.641264999999990     47.578800000000001     50.651049999999991
O      44.867374999999996     46.810499999999990     41.708585999999990
O      46.121065000000002     47.969300000000004     53.158449999999988
