5

C      48.201949999999997     47.949449999999992     48.085949999999990
H      47.206649999999996     48.010750000000002     47.622349999999997
H      48.678449999999998     47.353949999999998     47.180949999999996
H      48.092550000000003     47.139949999999999     48.819050000000004
H      48.793350000000004     48.860050000000001     48.586650000000006
