23

C      49.215570000000000     45.981049999999996     49.154399999999988
C      46.908969999999997     45.514850000000003     48.988599999999998
C      47.527069999999995     47.315350000000002     46.357899999999994
C      48.048069999999996     46.358049999999999     49.244100000000003
C      48.439269999999993     47.929050000000011     47.271200000000000
C      47.992170000000002     47.785249999999998     48.714599999999997
C      48.952169999999995     49.314950000000003     47.003000000000000
C      48.020269999999996     48.825350000000007     49.704999999999998
C      49.207669999999993     50.336649999999999     47.823200000000000
C      48.699470000000005     49.966650000000001     49.237099999999998
H      46.723969999999994     46.457950000000004     46.621800000000000
H      49.628270000000001     46.190649999999998     48.027199999999993
H      47.009169999999997     47.809949999999994     45.555299999999995
H      46.172330000000002     46.404450000000004     49.404999999999987
H      47.009169999999997     44.897350000000003     47.964599999999997
H      49.827669999999998     46.776350000000001     49.606699999999989
H      47.205370000000002     44.674050000000001     49.555599999999998
H      48.913370000000000     49.210349999999998     45.738599999999998
H      47.367170000000002     48.896149999999999     50.621800000000000
H      49.359169999999992     51.325949999999999     47.442200000000000
H      48.944569999999999     50.946850000000005     49.919100000000000
H      49.799669999999992     45.841549999999998     45.955399999999997
S      48.641970000000001     45.943550000000002     45.378200000000000
