6

C      48.476849999999985     48.006000000000000     47.437459999999994
C      47.538149999999995     48.068700000000000     48.580420000000004
H      48.490450000000003     48.425699999999999     46.383870000000002
H      49.514850000000003     47.574300000000001     47.730690000000003
H      46.485149999999997     48.421100000000003     48.322159999999997
H      47.702949999999994     47.740699999999997     49.616129999999998
