52

C      48.442499999999995     53.301049999999989     45.611599999999996
C      47.245499999999993     46.086050000000000     49.448000000000008
C      48.586699999999993     48.563150000000000     45.691400000000002
C      47.326300000000003     47.332249999999995     48.790900000000008
C      47.258200000000002     44.818849999999998     48.777700000000010
C      47.587900000000005     48.680550000000004     46.724400000000003
C      47.212699999999998     43.744549999999997     46.478100000000012
C      48.951899999999995     47.276149999999994     45.069700000000012
C      48.178100000000001     44.793050000000001     44.555400000000006
C      47.629199999999997     47.366250000000001     47.272700000000000
C      47.258200000000002     44.869850000000000     47.272500000000008
C      48.123199999999997     46.077249999999999     45.176700000000011
C      47.583799999999997     46.169849999999997     46.519900000000007
C      47.445499999999996     46.114049999999999     50.951300000000018
C      47.760599999999997     47.403550000000003     51.617900000000020
C      47.614999999999995     48.579050000000002     50.880300000000005
C      47.197999999999993     48.589149999999997     49.506800000000013
C      46.831499999999991     49.794649999999997     48.756100000000004
C      46.984200000000001     49.929350000000007     47.402500000000003
C      47.157299999999992     43.495249999999999     49.457400000000007
C      47.582599999999999     43.724449999999997     51.013500000000008
C      47.099999999999994     44.894350000000003     51.750900000000001
C      49.118499999999997     49.789250000000003     44.946300000000008
C      49.137900000000002     51.091450000000002     45.098200000000006
C      46.855699999999999     51.091450000000002     46.462500000000006
C      50.171099999999996     47.015350000000005     44.260500000000008
C      45.654499999999999     42.881050000000002     49.344300000000004
C      48.497399999999999     51.945550000000004     46.176100000000005
H      46.856099999999998     42.830449999999999     46.998699999999999
H      48.748499999999993     44.548349999999999     43.576700000000002
H      47.956699999999998     47.610250000000001     52.595700000000008
H      47.829200000000000     49.461049999999993     51.592000000000013
H      46.169600000000003     50.636450000000004     49.031700000000001
H      48.045100000000005     42.867849999999997     48.755000000000010
H      47.487799999999993     42.696050000000000     51.666000000000011
H      48.552999999999997     43.936549999999997     50.731600000000014
H      45.945099999999996     44.797249999999998     51.807000000000002
H      47.288399999999996     45.126649999999998     52.753399999999999
H      46.393799999999999     50.805550000000004     45.421100000000010
H      49.818500000000000     49.373650000000005     44.138600000000011
H      49.887000000000000     51.466150000000006     44.383300000000006
H      46.275499999999994     51.779249999999998     47.261000000000010
H      50.894700000000000     46.257550000000002     44.490700000000004
H      45.163499999999999     42.515050000000002     50.185700000000011
H      45.417000000000002     42.102449999999997     48.692000000000007
H      45.105300000000000     43.865349999999999     49.219200000000001
H      49.431399999999996     51.862749999999998     46.971800000000002
H      48.397800000000004     53.800649999999997     44.602800000000002
H      47.679999999999993     53.836149999999996     46.266200000000012
H      49.212699999999998     53.897550000000003     46.024000000000001
N      47.471800000000002     43.729849999999999     45.199500000000000
O      50.546499999999995     47.639549999999993     43.246600000000001
