20

C      49.822449999999996     50.042899999999996     48.891649999999991
C      46.221950000000000     47.565100000000001     46.031350000000003
C      48.557649999999995     49.635199999999998     48.791250000000005
C      46.566450000000003     48.375700000000002     46.850250000000003
C      47.943249999999999     48.212899999999998     48.873549999999994
C      46.862449999999995     47.680199999999999     48.147450000000006
C      48.817549999999997     47.389000000000003     49.597750000000005
C      46.079149999999998     46.489800000000002     48.441249999999997
C      48.107650000000000     46.268200000000000     50.051450000000003
C      46.743650000000002     45.842100000000002     49.459750000000000
H      50.918650000000000     49.580900000000000     49.238349999999997
H      45.170150000000000     47.081400000000002     46.153549999999996
H      46.923650000000002     47.243499999999997     45.370350000000002
H      50.280249999999995     51.015400000000000     48.557950000000005
H      47.706150000000001     50.308400000000006     48.530349999999999
H      46.358950000000000     49.333700000000000     46.871549999999999
H      49.726149999999997     47.819200000000002     50.057550000000006
H      45.081350000000000     46.456600000000002     48.065950000000001
H      48.575550000000000     45.392899999999997     50.629649999999998
H      46.196750000000002     44.984600000000000     49.941749999999999
