6

C      47.860834999999987     48.555699999999987     48.183699999999988
C      48.347814999999997     47.389999999999993     47.913899999999998
H      48.149654999999996     46.433100000000003     48.424300000000002
H      49.083635000000001     47.359199999999994     47.057900000000004
H      46.916364999999999     48.597099999999990     48.942099999999996
H      48.201884999999997     49.566899999999997     47.728200000000001
