22

C      50.105699999999999     49.049599999999991     47.363249999999994
C      50.395499999999998     48.579900000000002     48.673349999999985
C      48.852999999999994     49.573200000000000     46.851649999999992
C      49.431799999999996     47.697200000000002     49.395949999999999
C      48.027100000000004     48.268000000000001     47.330950000000001
C      48.389300000000006     47.259200000000000     48.323650000000001
C      46.715299999999999     48.028900000000000     46.848050000000001
C      47.377800000000008     46.473599999999998     48.934950000000001
C      45.659400000000005     47.278199999999998     47.464150000000004
C      46.063199999999995     46.895600000000002     48.794349999999994
H      50.447699999999998     48.083500000000001     46.569649999999996
H      50.902400000000000     49.856200000000001     47.140149999999991
H      51.534499999999994     48.218600000000002     48.739949999999993
H      50.581699999999998     49.467700000000001     49.379049999999992
H      47.877099999999999     50.227699999999999     47.001949999999994
H      49.008399999999995     49.167600000000007     45.638249999999999
H      48.977699999999999     48.149999999999999     50.361750000000001
H      50.139899999999997     46.932900000000004     49.755849999999995
H      46.355100000000007     48.943799999999996     46.485450000000000
H      47.377899999999997     45.772300000000001     49.934049999999999
H      44.465500000000006     47.651800000000001     47.124650000000003
H      45.323200000000000     46.461799999999997     49.447949999999992
