6

C      47.940249999999992     47.510449999999992     48.366349999999990
C      48.004049999999992     48.676949999999998     47.677250000000001
H      47.794049999999999     46.508550000000000     47.970550000000003
H      47.763249999999999     47.524650000000001     49.476550000000003
H      48.236750000000001     49.491450000000000     48.424049999999994
H      48.217649999999992     48.691250000000004     46.523449999999997
