16

C      46.499299999999991     46.943599999999989     48.949574999999989
C      48.420899999999989     49.200600000000009     50.231584999999995
C      47.155000000000001     48.086200000000005     48.386764999999997
C      48.351200000000006     48.700300000000013     48.898015000000001
C      47.129700000000000     48.015400000000000     46.915844999999997
C      49.565799999999996     48.897199999999998     48.060154999999995
C      48.268799999999999     48.048800000000000     46.193995000000001
C      49.622000000000000     48.234400000000008     46.895654999999998
H      48.146099999999990     47.873699999999999     45.111204999999998
H      46.780000000000001     46.402500000000003     49.932285000000000
H      45.436300000000003     46.635599999999997     48.828994999999999
H      49.362899999999996     49.255400000000009     50.888795000000002
H      47.416899999999998     48.866200000000006     50.697944999999990
H      50.353599999999986     49.597499999999997     48.200814999999999
H      46.069800000000001     47.776700000000005     46.258944999999997
H      50.563699999999997     47.934600000000003     46.277574999999999
