34

C      48.099499999999992     48.636949999999999     50.228399999999986
C      48.491799999999998     47.262249999999995     50.335300000000004
C      47.158900000000003     47.765649999999994     45.405500000000004
C      47.748199999999997     46.299949999999995     45.491399999999999
C      47.536299999999997     49.242149999999995     49.114400000000003
C      48.522299999999994     46.504249999999999     49.085499999999996
C      47.068700000000000     48.616650000000007     46.397700000000000
C      48.290900000000001     46.140550000000005     46.779899999999998
C      47.463900000000002     48.462850000000003     47.783299999999997
C      48.031599999999997     47.143649999999994     47.806600000000003
C      47.759799999999998     49.307950000000005     51.512600000000006
C      48.009799999999998     48.730649999999997     52.774500000000003
C      48.639800000000001     47.470349999999996     52.949200000000005
C      48.615999999999993     46.809550000000002     51.757599999999996
C      46.425300000000000     47.917950000000005     44.235799999999998
C      47.198099999999997     46.001549999999995     43.385999999999996
C      48.335200000000000     45.824349999999995     44.215900000000005
C      46.561500000000002     50.302149999999997     49.194900000000004
C      46.325600000000001     50.783049999999989     50.504899999999992
C      49.237900000000003     45.310050000000004     48.669700000000006
H      46.206000000000003     49.336749999999995     46.481099999999998
H      47.587600000000002     49.334249999999997     53.639399999999995
H      48.705199999999998     46.912649999999999     53.686300000000003
H      49.276400000000002     45.852649999999997     52.105599999999995
H      45.778900000000000     48.767949999999999     44.356499999999997
H      46.933700000000002     45.439850000000007     42.313699999999997
H      49.443600000000004     45.585650000000001     43.958299999999994
H      45.937800000000003     50.535849999999996     48.344999999999999
H      45.595999999999997     51.671949999999995     50.511799999999994
H      49.405799999999992     44.328050000000005     48.859099999999998
H      50.404000000000003     45.194850000000002     48.872500000000002
N      46.359299999999998     46.925950000000000     43.268199999999993
N      46.942000000000000     50.291149999999988     51.617300000000000
S      49.773699999999998     45.083550000000002     46.931600000000003
