18

C      49.782949999999992     48.704274999999988     47.660299999999992
C      47.084850000000003     48.222574999999992     45.821899999999999
C      48.638649999999998     49.453249000000000     47.886899999999997
C      46.988149999999997     47.691974999999999     47.159300000000002
C      47.450749999999999     48.629674999999992     48.204599999999999
C      46.455849999999998     46.383574999999993     47.589699999999993
C      46.658649999999994     48.607074999999995     49.380099999999985
C      45.845150000000004     46.257874999999999     48.910199999999989
C      45.915750000000003     47.510475000000000     49.665199999999984
H      50.021649999999994     47.829074999999989     48.391499999999994
H      48.286850000000001     50.575425000000010     47.812199999999990
H      46.720649999999999     47.330374999999989     45.416200000000003
H      50.568950000000001     49.060490000000001     46.970399999999998
H      46.900350000000003     49.352523000000005     45.619799999999998
H      46.743849999999995     45.533574999999999     47.052499999999995
H      46.784450000000000     49.177540000000000     50.310299999999998
H      45.451949999999997     45.424574999999990     49.263800000000003
H      45.431049999999999     47.440074999999993     50.583799999999997
