6

C      48.689599999999999     48.039649999999995     47.742414999999994
C      47.373500000000007     48.157550000000015     47.876885000000001
H      49.524299999999997     48.991450000000000     47.876594999999995
H      49.220500000000001     47.008550000000000     47.457975000000005
H      47.363700000000009     48.955950000000001     48.542024999999995
H      46.475700000000003     47.634550000000004     47.621965000000003
