6

C      47.263500000000001     47.964100000000002     48.177499999999995
C      48.519900000000007     47.954400000000007     47.826499999999996
H      46.935299999999998     48.314799999999991     49.338999999999999
H      46.406199999999998     48.065300000000008     47.331800000000001
H      48.699799999999996     47.685200000000009     46.661000000000001
H      49.593800000000002     48.029100000000000     48.446299999999994
