46

C      47.596699999999984     46.146099999999997     47.201941499999990
C      48.490500000000011     45.832599999999999     48.282101500000003
C      48.122500000000002     50.661599999999993     48.603031500000000
C      48.486099999999993     50.375000000000000     49.910621499999998
C      46.938900000000004     47.451899999999995     47.349811500000008
C      48.894700000000000     46.701899999999995     49.332351499999994
C      47.680700000000002     49.725099999999998     47.612151500000003
C      48.616599999999991     49.075000000000003     50.476281499999992
C      47.855599999999995     48.382700000000000     48.016581500000008
C      48.336100000000002     48.037300000000002     49.410051500000002
C      47.520299999999992     45.336799999999997     45.976781500000001
C      48.573399999999992     44.725300000000004     45.678481499999997
C      49.283699999999996     44.127399999999994     46.758891499999997
C      49.682800000000000     44.870300000000000     47.889231500000001
C      45.980000000000004     47.805399999999992     46.365991500000000
C      44.992300000000000     45.074600000000004     46.367051500000002
C      46.127700000000004     45.014200000000002     45.534751499999999
C      49.805599999999998     46.116599999999991     50.421121500000005
C      51.052599999999998     45.334699999999998     49.955381500000001
C      50.833699999999993     44.749799999999993     48.762831499999997
C      45.145399999999995     48.866000000000000     46.809881499999996
C      47.754899999999992     52.009500000000003     48.023061499999990
C      51.336100000000002     44.247000000000000     50.961651500000009
H      47.444699999999997     50.435199999999995     46.627061499999996
H      48.987899999999996     48.760199999999998     51.423231500000000
H      49.966100000000012     43.251599999999996     46.602121500000003
H      45.338700000000003     47.039599999999993     45.746591500000001
H      45.303200000000004     45.306799999999996     47.455031499999997
H      44.377899999999997     44.302599999999998     46.062791499999996
H      46.184100000000001     44.317999999999998     44.941381499999999
H      49.920800000000000     47.075000000000003     51.073811499999998
H      49.041899999999998     45.371700000000004     50.802101499999999
H      51.958200000000005     45.881299999999996     50.208691499999993
H      51.390100000000004     43.753299999999996     48.359091499999998
H      48.281100000000009     45.386699999999990     44.026368499999997
H      48.943399999999997     52.027999999999992     50.550321500000003
H      45.461299999999994     49.811399999999992     47.215181500000007
H      44.041799999999995     48.702399999999997     46.686661500000000
H      47.988500000000002     52.176900000000003     46.875641500000000
H      46.907499999999999     52.748400000000004     48.521831499999998
H      48.508500000000012     52.694099999999992     48.336681499999990
H      50.439900000000009     43.913399999999996     51.675111500000007
H      51.818000000000012     43.326799999999992     50.439531500000001
H      51.813500000000005     44.783400000000000     51.973631500000003
O      48.609900000000010     44.514899999999997     44.335461500000001
O      48.337800000000001     51.528300000000002     50.742671499999993
