62

C      49.025799999999990     45.893549999999991     49.207699999999988
C      47.797799999999995     46.714649999999999     48.888899999999992
C      47.084800000000001     51.332450000000001     44.798099999999991
C      50.266599999999997     46.248749999999994     48.497199999999992
C      48.245599999999996     51.762449999999994     44.120300000000000
C      47.246400000000008     50.403050000000000     45.830500000000001
C      50.660799999999995     51.169949999999993     44.964599999999990
C      51.417600000000007     49.995749999999994     45.327199999999991
C      51.235600000000005     47.658049999999996     46.778499999999994
C      49.194699999999997     50.975649999999995     44.864999999999995
C      50.158100000000005     47.268250000000002     47.553899999999999
C      50.756500000000003     48.884149999999998     46.127200000000002
C      48.636600000000001     50.162150000000004     46.037099999999995
C      48.958799999999997     48.000949999999996     47.489199999999997
C      49.307500000000005     48.910549999999994     46.408900000000003
C      49.062399999999997     45.162549999999996     50.450600000000009
C      48.043900000000008     45.268650000000001     51.312399999999997
C      46.811800000000005     46.065450000000006     50.944900000000004
C      46.576999999999998     46.359949999999991     49.558799999999991
C      51.441800000000001     52.218349999999994     44.273799999999994
C      52.421200000000013     51.559949999999994     43.472899999999996
C      53.102000000000004     50.405250000000002     43.655400000000000
C      52.559500000000000     49.519249999999992     44.673199999999994
C      50.372800000000012     44.326749999999997     50.743600000000001
C      50.541499999999999     43.822849999999995     52.032299999999992
C      49.344700000000003     43.718249999999998     52.881099999999989
C      48.294399999999996     44.535249999999998     52.480599999999995
C      51.392600000000002     44.479149999999997     49.790099999999995
C      51.342799999999997     45.213649999999994     48.585299999999989
C      46.081699999999998     46.654949999999992     52.027700000000010
C      45.046900000000008     47.437849999999997     51.909300000000002
C      44.390600000000006     47.414149999999999     50.551499999999990
C      45.301699999999997     47.158749999999991     49.530699999999996
C      44.736000000000004     47.098349999999989     48.093299999999999
C      43.055499999999995     47.934049999999992     50.218800000000002
C      52.654800000000009     47.519050000000000     47.184199999999990
C      48.182900000000004     52.701249999999995     42.792400000000001
H      45.966899999999995     51.792349999999992     44.829300000000003
H      46.313000000000002     50.165450000000000     46.428600000000003
H      51.003600000000006     53.062350000000002     44.009399999999999
H      52.388599999999997     52.155049999999996     42.658900000000003
H      53.852599999999995     50.111249999999991     42.787999999999997
H      53.078299999999999     48.604350000000004     45.042499999999990
H      51.537800000000004     43.658849999999994     52.286499999999990
H      47.370699999999999     44.833349999999996     53.297299999999993
H      52.087200000000010     45.237049999999996     47.781499999999994
H      46.402000000000001     46.306549999999994     53.263999999999996
H      44.458900000000000     47.984149999999993     52.637900000000002
H      44.543099999999995     48.152849999999994     47.890900000000002
H      42.147400000000005     47.398149999999994     49.734099999999998
H      52.877600000000001     47.325349999999993     48.243799999999993
H      53.755600000000015     48.455750000000002     47.522099999999995
H      49.314099999999996     52.837849999999996     42.892799999999994
H      47.546199999999999     53.650849999999998     42.940500000000000
H      47.576200000000000     52.428449999999998     41.926499999999990
H      52.405200000000008     44.051449999999996     49.940899999999999
H      50.239000000000004     42.349150000000002     54.073500000000010
H      53.260100000000008     46.807949999999998     46.679299999999998
N      47.903000000000006     47.792650000000002     48.166399999999996
O      45.181200000000004     46.366549999999997     47.254499999999993
O      43.097899999999996     49.095349999999989     50.456400000000002
O      49.376100000000008     42.864449999999998     53.999600000000001
