18

C      45.728699999999989     48.296694499999987     50.412299999999995
C      49.750200000000000     49.112994499999999     48.750100000000003
C      46.721399999999996     48.782194500000003     49.599100000000000
C      48.983299999999993     48.138994499999995     48.034500000000001
C      47.523199999999996     48.228694500000003     48.522199999999998
C      49.389400000000002     47.596794500000001     46.769400000000005
C      46.721399999999996     47.469594499999999     47.629200000000004
C      48.469000000000001     46.688394500000001     46.120600000000003
C      47.056499999999993     46.867294500000000     46.404400000000003
H      50.734100000000005     49.272158300000001     48.487600000000000
H      45.265899999999995     47.315894499999999     50.329800000000006
H      45.505900000000004     49.087294499999999     51.169899999999998
H      48.983600000000003     49.435682499999999     49.559700000000007
H      47.134300000000003     49.803505500000000     50.161700000000003
H      50.611799999999995     47.802594499999998     46.562800000000003
H      45.687999999999995     47.115594500000000     47.904900000000005
H      48.727699999999992     46.530394500000000     44.830100000000002
H      46.349899999999998     46.196494500000000     46.004100000000001
