5

C      48.100349999999992     47.940699999999993     48.173050000000003
H      47.264450000000004     48.125400000000013     48.783949999999997
H      48.735549999999996     49.011700000000005     48.328049999999998
H      48.498049999999999     46.988299999999995     48.658149999999999
H      47.497650000000000     47.736900000000006     47.216050000000003
