18

C      50.153039999999990     47.437849999999990     48.730149999999995
C      49.410498000000004     49.374549999999999     47.462249999999997
C      48.551990000000018     47.597350000000006     48.729349999999997
C      48.132090000000005     48.795850000000002     48.129249999999999
C      47.666290000000018     46.506150000000005     49.233749999999986
C      46.861290000000025     49.001050000000006     47.538649999999990
C      46.503690000000006     46.728450000000009     48.664149999999992
C      46.074590000000001     47.937350000000009     47.953450000000004
H      49.612160000000003     48.614850000000004     46.574050000000000
H      50.839210000000008     48.160550000000001     49.135949999999994
H      50.403350000000003     47.099649999999997     47.801050000000004
H      50.431989999999999     46.304550000000006     49.196249999999992
H      49.380219000000011     50.422950000000000     47.224549999999994
H      50.248880000000000     49.148850000000010     48.309649999999991
H      48.070189999999997     45.577050000000000     49.425950000000000
H      46.670190000000034     50.152250000000009     47.150849999999991
H      45.901990000000026     45.857849999999999     48.796849999999992
H      45.160789999999992     48.151650000000004     47.404849999999996
