19

C      47.491399999999985     50.773284999999980     47.217999999999989
C      48.428499999999993     45.790243999999987     47.439900000000009
C      48.411799999999992     47.320764999999987     50.117600000000010
C      47.970999999999997     46.880814999999991     47.703400000000016
C      48.318999999999996     47.652624999999986     48.784199999999998
C      47.260200000000005     47.376384999999985     46.645400000000009
C      48.903399999999998     49.011994999999985     48.072800000000001
C      47.491599999999998     48.800424999999990     46.099100000000007
C      47.740599999999993     49.592434999999988     47.089500000000001
H      46.522100000000002     51.182704999999984     47.611300000000000
H      48.303199999999997     51.249254999999991     46.505099999999999
H      47.926200000000001     44.750745000000009     47.260100000000008
H      49.467899999999993     45.660342999999990     47.896500000000003
H      47.880199999999995     46.427274999999987     50.687800000000010
H      48.706499999999998     47.999464999999987     50.883499999999998
H      46.621500000000005     46.511744999999991     46.391400000000004
H      49.127500000000005     49.697104999999986     48.806100000000001
H      48.178300000000000     48.724574999999987     45.116500000000002
H      49.477899999999998     49.034624999999991     47.149700000000010
