85

C      45.130400000000002     51.209449999999990     47.334350000000001
C      51.709800000000001     48.158250000000002     46.528750000000002
C      44.528599999999997     49.987650000000002     47.912149999999997
C      51.213000000000008     47.012749999999997     47.264350000000007
C      46.526800000000009     51.470849999999999     47.081750000000000
C      50.944100000000006     49.377749999999999     46.577550000000002
C      45.122399999999999     48.034649999999999     49.180750000000003
C      48.985799999999998     45.610750000000003     47.785249999999991
C      46.060600000000008     47.052549999999997     49.661549999999991
C      47.772300000000001     45.627749999999999     48.650750000000002
C      49.016300000000001     50.736049999999999     47.516150000000010
C      45.591200000000001     49.076250000000002     48.393349999999998
C      49.768100000000004     46.914050000000003     47.523650000000004
C      47.212800000000001     46.908549999999998     48.944850000000002
C      47.588500000000010     50.530349999999999     47.516649999999998
C      49.751000000000005     49.433250000000001     47.263050000000007
C      47.030200000000008     49.204250000000002     47.837249999999997
C      49.176400000000001     48.160550000000001     47.626649999999998
C      47.847200000000001     48.198549999999997     48.217849999999999
C      44.457900000000009     52.447749999999992     47.208849999999998
C      43.304700000000011     52.509949999999996     48.059049999999999
C      42.642200000000003     51.384449999999994     48.178550000000001
C      43.166000000000011     49.997950000000003     48.209249999999997
C      42.755900000000011     49.032249999999998     49.249150000000000
C      43.666000000000011     47.584650000000003     49.412449999999993
C      53.641199999999998     46.946449999999999     46.164749999999998
C      53.341900000000010     45.851050000000001     46.891249999999999
C      52.007900000000006     45.802549999999997     47.436650000000000
C      47.060200000000009     52.330750000000002     46.033850000000001
C      46.660300000000007     53.698749999999997     46.512550000000005
C      49.491799999999998     51.957549999999998     48.009250000000009
C      48.349699999999999     53.087449999999997     48.478149999999999
C      42.699100000000001     49.462850000000003     50.682249999999996
C      48.631900000000002     53.404549999999993     49.936950000000010
C      45.248600000000010     53.649350000000005     46.836250000000007
C      48.247100000000003     51.969149999999999     45.239850000000004
C      48.277700000000010     50.663150000000002     44.703249999999997
C      44.302700000000002     46.160049999999998     47.277250000000009
C      43.363600000000005     46.778750000000002     48.168950000000009
C      41.553700000000006     44.771949999999997     49.402950000000004
C      43.218500000000006     46.711849999999998     50.681049999999999
C      43.050600000000003     44.308750000000003     49.801649999999995
C      43.907000000000011     45.269050000000000     50.428449999999998
C      43.442100000000011     42.946550000000002     49.662649999999999
C      44.916300000000007     44.635750000000002     51.121749999999992
C      44.756300000000010     42.428750000000001     49.853350000000006
C      45.403000000000006     43.380150000000000     50.689450000000008
H      51.369000000000000     50.327849999999998     46.191850000000002
H      47.358500000000006     44.718449999999997     48.831450000000004
H      49.550899999999999     44.831550000000000     47.241349999999997
H      45.756300000000010     46.224150000000002     50.278649999999999
H      41.517499999999998     51.187350000000002     48.940849999999998
H      41.914200000000008     48.470950000000002     48.887550000000005
H      53.890400000000000     44.955449999999999     46.858450000000005
H      51.410100000000000     44.886350000000000     47.434449999999998
H      48.954000000000008     54.027650000000001     47.840249999999997
H      47.330399999999997     52.707349999999998     48.283250000000010
H      43.250900000000001     50.515650000000001     50.589950000000002
H      43.059800000000010     54.370150000000002     48.150049999999993
H      55.256000000000000     47.662250000000000     45.205849999999998
H      49.054000000000002     54.336550000000010     49.705149999999989
H      47.866399999999999     53.412649999999999     50.738750000000010
H      47.345300000000009     54.728349999999999     46.611450000000005
H      44.793100000000010     54.566749999999992     47.296850000000006
H      49.616000000000000     53.048049999999996     50.581249999999997
H      47.439599999999999     50.050849999999997     44.512050000000002
H      49.175200000000004     50.210549999999998     44.158950000000004
H      41.671599999999998     44.979950000000002     48.307350000000000
H      44.140700000000010     45.316249999999997     46.494550000000004
H      45.239000000000004     46.460050000000003     47.352249999999998
H      42.315600000000003     46.609949999999998     47.762050000000002
H      49.235700000000008     52.427149999999990     45.044049999999999
H      40.744100000000003     45.503749999999997     49.913150000000002
H      40.744000000000000     43.841050000000003     49.839750000000009
H      43.634200000000007     46.828350000000000     51.584149999999994
H      42.078699999999998     46.697350000000000     50.942049999999995
H      42.575000000000003     42.269550000000002     49.943449999999999
H      45.492400000000004     45.090850000000003     51.841049999999996
H      44.985300000000009     41.271650000000001     49.694450000000003
H      46.321100000000001     42.612450000000003     51.068550000000002
N      52.866799999999998     47.895049999999998     45.863050000000001
O      50.716099999999997     52.145550000000007     47.954650000000001
O      41.701500000000010     49.147750000000002     51.361750000000001
O      42.653199999999998     53.609949999999991     48.704849999999993
O      54.942900000000009     46.907150000000001     45.845450000000000
