18

C      46.214949999999988     49.465199999999996     47.055949999999996
C      46.481749999999998     48.432600000000001     46.052349999999997
C      47.044050000000006     49.322099999999999     48.272349999999996
C      47.573649999999994     47.518200000000000     46.079150000000006
C      47.940549999999995     48.417200000000001     48.517150000000008
C      48.189950000000003     47.439699999999995     47.354750000000003
C      48.564649999999993     48.152200000000001     49.790349999999997
C      48.927150000000005     46.200499999999998     47.722749999999998
C      49.513650000000005     47.133599999999994     49.883550000000007
C      49.689649999999993     46.051099999999998     48.811349999999997
H      45.621249999999996     50.476800000000004     46.592250000000000
H      45.726449999999993     48.374699999999997     45.299450000000000
H      46.754849999999998     49.806499999999993     49.247650000000000
H      47.644349999999996     46.925099999999993     45.259650000000001
H      48.669350000000001     49.109800000000000     50.404450000000004
H      49.007650000000005     45.626699999999992     46.826749999999997
H      50.138650000000005     47.348599999999998     50.740349999999999
H      50.378750000000004     45.523199999999996     49.415750000000003
