55

C      45.047499999999992     51.461100000000002     48.105599999999988
C      44.541899999999998     50.785700000000006     47.064799999999998
C      50.660499999999999     47.010800000000003     48.479100000000003
C      46.197199999999995     45.210800000000006     47.104900000000001
C      46.306399999999996     51.108699999999999     48.708700000000000
C      49.872799999999998     46.005400000000009     48.090100000000000
C      47.715400000000002     45.039900000000003     47.336099999999995
C      50.153500000000008     48.360299999999995     48.814899999999994
C      44.787500000000001     49.367199999999997     47.049199999999999
C      45.556100000000001     46.479299999999995     47.193100000000001
C      48.118399999999994     49.723399999999998     48.095500000000001
C      48.484399999999994     46.160100000000000     47.615499999999997
C      46.810600000000008     49.977699999999999     47.961799999999997
C      48.757700000000000     48.499899999999997     48.096399999999996
C      45.956500000000005     48.911400000000000     47.513999999999996
C      46.506200000000007     47.561900000000009     47.226199999999999
C      47.845500000000001     47.436999999999998     47.733199999999997
C      47.181899999999999     52.009399999999999     49.287199999999999
C      48.572400000000002     51.960999999999999     49.435199999999995
C      49.169200000000004     50.964300000000009     48.708299999999994
C      50.455100000000002     44.563699999999997     48.371799999999993
C      49.715800000000002     43.587800000000001     47.353499999999997
C      48.217299999999994     43.558499999999995     47.471299999999999
C      50.496499999999997     50.655900000000003     48.773399999999995
C      47.553100000000001     43.108599999999996     48.756000000000000
C      46.398099999999999     44.013199999999998     49.262999999999991
C      49.496200000000002     53.160199999999989     49.870000000000005
C      52.110300000000002     47.177500000000009     48.116900000000001
H      45.267099999999999     44.489400000000003     46.987600000000000
H      49.826799999999999     48.465800000000002     49.946500000000000
H      44.448100000000004     46.728400000000008     47.002199999999995
H      46.931699999999992     52.833900000000000     49.944299999999998
H      51.459600000000009     44.797600000000003     48.170199999999994
H      50.154400000000003     44.689300000000003     49.398199999999996
H      50.282699999999998     42.677300000000002     47.301299999999998
H      50.158200000000001     44.021000000000001     46.248199999999997
H      47.961500000000001     42.890299999999996     46.553199999999997
H      51.227300000000000     51.451099999999997     48.625999999999991
H      45.351999999999990     43.715000000000003     48.853299999999990
H      45.953000000000003     43.220900000000000     49.995399999999997
H      42.925600000000003     51.146299999999997     46.321100000000001
H      44.140200000000000     48.397400000000005     45.412700000000001
H      48.926499999999997     53.656400000000005     50.587299999999999
H      50.234400000000008     53.449500000000000     49.054600000000008
H      50.517499999999998     52.603099999999998     50.198200000000000
H      52.230499999999992     48.242400000000004     47.404599999999995
H      52.133400000000002     46.468299999999999     47.239100000000001
H      53.074399999999997     47.697000000000003     48.804299999999998
H      44.147300000000001     53.261899999999997     47.974899999999998
H      46.808199999999999     45.120199999999997     49.522700000000000
O      51.000500000000002     49.451700000000002     48.527499999999996
O      47.990900000000011     42.343599999999995     49.613799999999998
O      44.669100000000000     52.752700000000004     48.637799999999999
O      43.900199999999998     48.701499999999996     46.274499999999996
O      43.774400000000000     51.409099999999995     46.027699999999996
