22

C      48.817099999999989     47.092549999999996     49.661799999999999
C      49.421999999999997     46.282950000000000     48.488399999999999
C      47.354600000000005     47.639749999999992     49.851799999999997
C      48.595100000000002     46.798250000000003     47.324200000000005
C      47.193500000000000     48.502050000000004     48.572299999999998
C      47.985600000000005     48.209350000000001     47.412300000000002
C      46.176699999999997     49.473550000000003     48.611199999999997
C      48.018500000000003     48.859949999999998     46.112400000000008
C      46.055099999999996     50.030349999999999     47.283700000000010
C      46.903499999999994     49.731250000000003     46.158100000000005
H      48.867000000000004     46.448250000000002     50.468299999999999
H      49.083200000000005     48.242249999999999     49.758899999999997
H      50.535200000000003     46.420850000000002     48.313599999999994
H      49.382999999999996     45.082250000000002     48.376400000000004
H      46.691000000000003     46.797249999999998     49.948499999999996
H      47.121099999999998     47.965850000000003     50.876099999999994
H      48.914100000000005     46.577350000000003     46.345700000000008
H      47.538100000000000     46.237349999999999     47.474400000000003
H      45.464799999999997     49.895750000000007     49.272900000000007
H      48.723399999999998     48.727950000000000     45.123900000000006
H      45.606399999999994     50.917749999999998     47.416800000000009
H      46.565700000000007     50.390250000000009     45.268600000000006
