5

C      47.945499999999981     47.959979999999987     48.123649999999991
H      48.185999999999986     48.698060000000005     48.874549999999999
H      46.808699999999995     47.301939999999995     48.261449999999996
H      49.191300000000005     47.484339999999996     47.695749999999990
H      47.851799999999990     48.242459999999987     47.125450000000001
