22

C      47.202949999999987     48.074449999999985     50.373149999999988
C      46.524449999999995     46.878849999999993     49.746049999999997
C      48.612450000000003     48.697650000000003     49.874949999999998
C      47.005550000000007     46.633050000000004     48.106150000000000
C      49.086050000000007     48.131250000000001     48.540449999999993
C      48.194550000000000     47.385950000000001     47.703749999999999
C      49.775749999999995     49.041649999999997     47.833749999999995
C      48.147849999999998     47.634449999999994     46.274649999999994
C      49.951650000000008     49.263050000000000     46.476550000000003
C      49.191250000000004     48.443750000000001     45.585949999999997
H      47.247750000000003     47.905749999999991     51.491150000000005
H      46.562549999999995     48.792749999999991     49.930949999999996
H      46.740450000000003     45.849849999999996     50.213449999999995
H      45.382349999999995     46.734949999999991     49.560450000000003
H      48.749850000000002     49.851350000000004     50.143950000000004
H      49.272449999999999     48.480749999999993     50.769149999999996
H      46.982949999999995     45.960349999999998     47.271050000000002
H      45.917250000000003     47.198950000000004     47.842150000000004
H      50.360049999999994     50.019150000000003     48.496650000000002
H      47.520249999999997     47.143149999999999     45.677049999999994
H      50.617650000000005     50.150150000000004     45.973550000000003
H      49.101350000000004     48.799349999999997     44.508849999999995
