21

C      46.450774999999993     46.717299999999994     46.508199999999988
C      45.122805000000000     47.030799999999992     46.966199999999994
C      47.387405000000001     47.882600000000004     46.403299999999994
C      49.890585000000002     49.136400000000002     46.206899999999997
C      48.366875000000007     47.811200000000007     47.618500000000004
C      49.628614999999996     48.446000000000005     47.557499999999997
C      47.876745000000000     47.388800000000010     48.853199999999994
C      50.620045000000005     48.422900000000006     48.615000000000002
C      48.473804999999999     47.927600000000005     50.014500000000005
C      49.908865000000006     48.210100000000004     49.861499999999999
H      46.609475000000003     45.629500000000000     46.405600000000000
H      44.236045000000004     46.327100000000002     46.696300000000001
H      45.168965000000000     47.351500000000009     48.024800000000006
H      47.541655000000006     48.494800000000005     45.574999999999996
H      50.626045000000005     48.606300000000012     45.494099999999996
H      49.221585000000005     49.472600000000000     45.163999999999994
H      49.808585000000008     50.370500000000000     46.395400000000002
H      46.898105000000001     46.684899999999999     48.853199999999994
H      51.763954999999996     48.772100000000002     48.498600000000003
H      47.845175000000012     47.449599999999997     50.836000000000006
H      50.562534999999997     48.231200000000008     50.695699999999995
