20

C      45.307500000000005     45.313649999999996     48.609799999999993
C      46.198100000000011     46.493549999999999     48.775100000000009
C      50.301500000000004     47.973950000000002     49.238200000000006
C      46.854500000000002     47.562449999999984     49.033200000000008
C      49.215200000000010     48.623449999999991     48.220799999999997
C      47.854200000000006     48.595950000000002     48.104299999999995
C      49.741999999999990     49.544849999999997     47.287199999999999
C      47.108900000000006     49.572649999999996     47.353899999999996
C      49.149800000000013     50.267550000000000     46.380899999999997
C      47.703700000000012     50.314149999999998     46.278999999999996
H      44.779800000000009     45.227050000000006     47.497000000000000
H      44.859900000000010     44.940250000000006     49.537000000000006
H      46.648399999999995     48.370750000000001     49.823499999999996
H      51.220199999999991     48.572350000000000     49.017800000000008
H      50.253900000000016     47.046850000000006     48.858999999999995
H      50.942300000000003     49.840350000000001     47.168499999999995
H      46.059100000000001     49.854550000000003     47.488100000000003
H      49.563900000000004     51.059749999999994     45.877399999999994
H      47.265600000000006     51.026249999999990     45.627799999999993
H      50.365900000000011     47.772850000000005     50.372200000000007
