18

C      49.057882999999983     46.553899999999985     49.244684999999990
C      46.494250000000008     46.361899999999991     47.438675000000003
C      48.971557999999987     47.339500000000001     47.956074999999998
C      47.763950000000015     47.169399999999996     47.221495000000004
C      49.876429999999992     48.531599999999997     47.805715000000006
C      47.252850000000016     48.291300000000007     46.495005000000006
C      49.386495999999980     49.503299999999996     46.952474999999993
C      47.999749999999999     49.452200000000005     46.461974999999995
H      46.558950000000003     45.572099999999992     46.709945000000005
H      48.061349999999997     46.493099999999998     49.938725000000005
H      45.316750000000013     46.669400000000010     47.212164999999999
H      49.816779999999980     47.086399999999998     49.994375000000005
H      50.683249999999987     48.737099999999998     48.387225000000001
H      46.373649999999991     48.252399999999994     46.005624999999995
H      49.710779999999986     50.483500000000006     47.146905000000004
H      47.549649999999978     50.233499999999992     46.017955000000001
H      46.501849999999983     45.834400000000002     48.455164999999994
H      49.338606999999982     45.516499999999994     48.498194999999996
