22

C      47.151249999999990     48.788449999999997     45.521799999999992
C      48.343350000000001     48.211149999999996     44.807599999999994
C      46.633049999999997     48.174849999999999     46.890199999999993
C      49.422049999999999     47.001349999999995     47.989499999999992
C      47.382150000000010     48.635349999999995     48.172100000000000
C      48.615349999999992     48.084250000000004     48.721800000000002
C      46.375150000000005     49.350950000000005     48.804400000000001
C      48.897550000000010     48.609249999999996     49.964999999999989
C      46.526049999999998     49.249350000000000     50.180999999999997
C      47.813050000000004     48.837849999999996     50.860099999999989
H      49.471350000000001     46.086549999999995     48.678100000000001
H      48.223250000000007     47.305749999999996     44.134900000000002
H      47.195650000000001     49.913450000000005     45.125999999999991
H      49.130449999999996     48.882550000000002     44.432999999999993
H      45.606750000000005     48.067950000000003     46.677399999999992
H      46.760350000000003     46.992749999999994     46.971099999999993
H      49.536950000000004     46.892749999999999     46.841200000000001
H      50.503050000000002     47.536250000000003     47.769799999999989
H      45.514349999999993     49.715150000000001     48.219099999999997
H      49.944150000000008     48.465049999999998     50.435999999999993
H      45.496949999999998     49.289449999999995     50.649799999999999
H      48.086550000000003     48.836049999999993     51.865099999999998
