6

C      48.646892499999993     47.471999999999994     47.995599999999996
C      47.571232500000001     48.430100000000003     47.891800000000003
H      48.241122499999996     46.535699999999999     47.570000000000000
H      49.523732500000001     47.822799999999994     48.469999999999999
H      47.427022500000000     49.464300000000001     48.364399999999996
H      46.476267499999999     48.218900000000005     47.530000000000001
