6

C      48.633169999999993     48.046549999999996     48.293649999999992
C      47.478999999999999     47.682149999999993     47.544349999999994
H      48.261719999999997     48.441749999999999     49.491550000000004
H      49.584330000000001     48.402050000000003     47.892949999999999
H      47.635320000000000     47.558250000000001     46.508449999999996
H      46.415669999999999     48.010350000000003     47.917149999999992
