18

C      47.403849999999998     46.215299999999992     46.289999999999992
C      48.143749999999997     48.883099999999999     46.113999999999997
C      47.214349999999996     47.208200000000005     47.449500000000008
C      47.466549999999998     48.521799999999999     47.386299999999999
C      47.062650000000005     46.529900000000012     48.742600000000003
C      47.537549999999996     49.482799999999997     48.480300000000000
C      47.078249999999997     47.436100000000003     49.760600000000004
C      46.983649999999997     48.828500000000005     49.591900000000003
H      47.060450000000003     46.670299999999997     45.320200000000000
H      48.433949999999996     45.767800000000001     45.871600000000001
H      49.495750000000001     48.745499999999993     46.048699999999997
H      47.687250000000006     48.481200000000001     45.113000000000000
H      47.142049999999998     45.547600000000003     48.858300000000007
H      48.161950000000004     50.452399999999997     48.440800000000003
H      47.285449999999997     47.192999999999998     50.887000000000000
H      47.003850000000000     49.634700000000002     50.284699999999994
H      48.387249999999995     49.991500000000002     46.090399999999995
H      46.504249999999999     45.578000000000003     46.331399999999995
