22

C      50.697999999999993     48.522149999999989     47.643149999999991
C      50.116899999999994     48.206350000000000     49.043449999999993
C      49.478000000000002     48.340849999999996     46.615849999999995
C      48.768200000000000     48.657150000000001     49.620850000000004
C      48.290599999999998     47.640149999999998     47.327849999999998
C      47.863899999999994     47.832449999999994     48.723649999999992
C      47.389699999999998     47.147449999999992     46.336449999999999
C      46.521799999999999     47.459149999999994     49.084549999999993
C      46.238799999999998     46.569949999999992     46.842749999999995
C      45.757700000000000     46.683650000000000     48.149649999999994
H      51.159500000000001     47.604249999999993     47.433750000000003
H      51.070500000000003     49.572849999999988     47.536450000000002
H      50.281399999999998     47.153549999999996     49.348550000000003
H      50.966100000000004     48.542450000000002     49.724149999999995
H      49.340699999999998     49.289549999999998     46.109949999999998
H      49.910699999999999     48.090149999999994     45.480249999999998
H      48.577999999999996     48.481949999999998     50.844049999999996
H      48.562700000000000     49.716149999999999     49.644149999999996
H      47.599299999999999     47.090449999999997     45.155950000000004
H      46.155099999999997     47.694949999999992     50.057849999999988
H      45.356600000000000     46.588249999999995     46.127449999999996
H      44.840499999999999     46.283850000000001     48.673549999999992
