63

C      45.720350000000003     47.480499999999992     47.977999999999994
C      46.585850000000008     47.162800000000004     49.022800000000004
C      43.221950000000007     45.923400000000001     51.738200000000006
C      44.259050000000002     47.544200000000004     48.384500000000003
C      42.777350000000013     46.323599999999999     50.360299999999995
C      44.600149999999999     46.005899999999997     51.894400000000005
C      44.008950000000013     46.835700000000003     49.629899999999992
C      45.034150000000011     46.607399999999998     50.673600000000008
C      45.985950000000003     48.012000000000000     46.726299999999995
C      47.332850000000008     47.866700000000009     46.244100000000003
C      48.295650000000009     47.363200000000006     47.147900000000007
C      47.909250000000000     47.152799999999999     48.580599999999990
C      44.941850000000002     48.990700000000004     46.054299999999998
C      45.280050000000003     49.439700000000002     44.842600000000004
C      46.572850000000003     49.315500000000000     44.324500000000000
C      47.451650000000001     48.307699999999997     44.834900000000005
C      43.587350000000001     49.207300000000004     46.649599999999992
C      43.322850000000003     48.490900000000011     47.878900000000002
C      41.510150000000010     46.026300000000006     49.692799999999991
C      42.418550000000010     49.069199999999995     48.934399999999997
C      48.787450000000007     47.654399999999995     49.846599999999995
C      47.974250000000012     47.209999999999994     43.862499999999997
C      49.748350000000002     46.776600000000002     47.103099999999998
C      54.092550000000003     48.292400000000001     44.451700000000002
C      43.162649999999999     49.889600000000002     49.885499999999993
C      53.473750000000010     48.730099999999993     45.581699999999998
C      51.103650000000002     47.852999999999994     47.313500000000005
C      53.488150000000005     47.957099999999997     46.891800000000003
C      52.274250000000009     47.747799999999998     47.703000000000003
C      54.387150000000005     46.915499999999994     47.153700000000001
C      52.402250000000009     47.390900000000002     48.886899999999997
C      54.400550000000010     46.259399999999999     48.452399999999997
C      53.539550000000006     46.722999999999999     49.408699999999996
H      42.456750000000000     45.804699999999997     52.600499999999997
H      44.988150000000005     45.607500000000002     53.075900000000004
H      46.941850000000002     49.881299999999996     43.532100000000000
H      42.778450000000007     50.050600000000003     46.226699999999994
H      40.886150000000001     45.235399999999998     50.223399999999998
H      43.660850000000011     49.778099999999995     44.052899999999994
H      41.183350000000004     46.109200000000001     48.605999999999995
H      41.681550000000001     48.354600000000005     49.299699999999987
H      41.794250000000005     49.594000000000008     48.198099999999997
H      48.975149999999999     48.775400000000005     49.920800000000000
H      49.796250000000001     47.574900000000000     49.786100000000005
H      48.754850000000005     47.505700000000004     42.924099999999996
H      46.958150000000003     46.900000000000006     43.334199999999996
H      49.937049999999999     45.741900000000001     47.665199999999999
H      48.226950000000002     47.420900000000003     50.726100000000002
H      48.263450000000006     46.304699999999997     44.337999999999994
H      50.459350000000001     48.677599999999998     46.921300000000002
H      54.768350000000012     47.426599999999993     44.277699999999996
H      44.128750000000011     50.151300000000006     49.385799999999989
H      43.774650000000008     49.140600000000006     50.603600000000000
H      43.237550000000013     50.764600000000002     50.460899999999995
H      53.691749999999999     48.826700000000002     43.598299999999995
H      52.615450000000010     49.522599999999997     45.596099999999993
H      50.071550000000002     46.143600000000006     46.181600000000003
H      55.113849999999999     46.693299999999994     46.421800000000005
H      51.619850000000000     47.700000000000003     49.674400000000006
H      55.050750000000008     45.611900000000006     48.744699999999995
H      53.639750000000006     46.537000000000006     50.570200000000000
N      46.306350000000009     46.827399999999997     50.392200000000003
O      44.524750000000012     50.007700000000000     43.801999999999992
