6

C      48.360999999999997     47.832649999999994     47.467499999999994
C      47.764300000000006     47.876449999999991     48.662999999999997
H      48.110000000000007     48.375250000000001     46.482799999999997
H      49.487499999999997     47.532049999999998     47.559100000000001
H      46.512500000000003     48.467950000000002     48.531800000000004
H      48.580799999999996     48.075350000000000     49.517200000000003
