5

C      47.992549999999994     48.396999999999991     48.245999999999995
H      49.105550000000001     48.445200000000000     48.359999999999992
H      46.894449999999999     48.753600000000006     48.394900000000000
H      48.085749999999997     47.814700000000002     47.253300000000003
H      47.992849999999997     47.246399999999994     48.746699999999997
