18

C      50.043249999999986     47.241999999999990     48.442399999999992
C      48.461249999999993     48.603200000000001     50.270699999999998
C      48.700549999999993     47.910300000000007     48.216799999999999
C      47.618449999999996     48.073700000000002     49.074199999999998
C      48.367949999999993     48.032600000000002     46.681699999999999
C      46.155450000000002     48.016500000000008     48.667399999999994
C      47.162750000000003     47.982600000000005     46.232399999999998
C      46.107249999999993     48.048600000000008     47.252199999999995
H      49.507450000000006     48.137699999999995     50.479599999999998
H      50.918450000000007     47.936700000000002     47.646700000000003
H      50.237350000000006     46.379199999999997     49.195900000000002
H      49.931350000000009     46.410899999999998     47.568899999999999
H      47.829250000000002     48.431600000000003     51.084499999999998
H      48.704449999999994     49.620800000000003     49.762700000000002
H      49.135949999999994     48.143799999999999     45.959499999999998
H      45.332750000000004     47.502500000000012     49.133000000000003
H      46.949550000000002     48.073800000000006     44.915500000000002
H      45.081549999999993     48.158400000000000     47.003200000000000
