98

C      50.357042999999997     50.385699999999993     43.101449999999986
C      49.142853000000002     51.160100000000000     43.745149999999995
C      45.793942999999999     51.031599999999997     40.313050000000004
C      50.368943000000002     49.074199999999998     42.337049999999991
C      45.042563000000001     49.892699999999998     39.792749999999998
C      48.387912999999998     50.049700000000001     44.075450000000004
C      46.297013000000000     50.874400000000001     41.673649999999995
C      45.077573000000001     47.477100000000000     40.479050000000001
C      45.815583000000004     46.677700000000002     41.408850000000001
C      45.410733000000000     48.935699999999997     40.655249999999995
C      49.187213000000000     48.329099999999997     42.289949999999990
C      46.301833000000002     47.152799999999999     42.721549999999993
C      46.069053000000004     49.398499999999999     41.856049999999996
C      48.235663000000002     49.037100000000002     43.057450000000003
C      46.925963000000003     48.444400000000002     42.564049999999995
C      51.592843000000002     50.830800000000004     43.242649999999998
C      51.719643000000005     51.960499999999996     44.354849999999999
C      50.593542999999997     52.550700000000006     44.809649999999991
C      49.176993000000003     52.169899999999998     44.509850000000000
C      43.828462999999999     47.129199999999997     39.640649999999994
C      43.346443000000001     45.771500000000003     39.606949999999998
C      43.945723000000001     45.115000000000002     40.840450000000004
C      44.846113000000003     45.627299999999998     41.708849999999998
C      52.829643000000004     50.350200000000001     42.745350000000002
C      54.046143000000001     52.133699999999990     43.761550000000000
C      52.987743000000002     52.472799999999992     44.740050000000011
C      52.847242999999992     49.079400000000000     42.230449999999990
C      51.651043000000001     48.553899999999999     41.728549999999998
C      43.591442999999998     48.276200000000003     38.649649999999994
C      44.437373000000001     49.457099999999997     38.624650000000003
C      42.094293000000000     45.355100000000000     39.031149999999997
C      41.804893000000000     45.306500000000000     37.805650000000000
C      48.301833000000002     52.980099999999993     44.869750000000010
C      47.730823000000001     46.783299999999997     49.428650000000005
C      49.139863000000005     46.137200000000000     49.110350000000011
C      48.290543000000000     44.672100000000000     53.828350000000000
C      49.592953000000001     44.159700000000001     53.329650000000001
C      47.306252999999998     46.753599999999999     50.697350000000000
C      49.952043000000003     45.832300000000004     50.179850000000002
C      47.587572999999999     45.611100000000000     53.038950000000000
C      49.941363000000003     44.423699999999997     51.987349999999992
C      48.007153000000002     46.121800000000000     51.801349999999999
C      49.253713000000005     45.512799999999999     51.376350000000002
C      46.884553000000004     47.195700000000002     48.299449999999993
C      47.548453000000002     47.077100000000002     47.078949999999992
C      48.918143000000001     46.604300000000002     46.808850000000007
C      49.635432999999999     45.939300000000003     47.750050000000002
C      48.021222999999999     44.545400000000001     55.225250000000003
C      48.660792999999998     43.630200000000002     55.997650000000007
C      49.587592999999998     42.652299999999997     55.475449999999995
C      50.259193000000003     43.254500000000000     54.368849999999995
C      45.580573000000001     47.926699999999997     48.543149999999997
C      45.009042999999998     48.741799999999998     47.519449999999992
C      45.596943000000003     48.684500000000000     46.207950000000011
C      46.659693000000004     47.713500000000003     46.142749999999992
C      45.191993000000004     48.076099999999997     49.860749999999996
C      45.852653000000004     47.116199999999999     50.799250000000001
C      48.126733000000002     43.529299999999999     57.440249999999992
C      49.299233000000001     42.789200000000001     58.186349999999990
C      46.966303000000003     47.239400000000003     44.813850000000002
H      45.857022999999998     52.000000000000000     39.777349999999998
H      47.664563000000001     50.122199999999999     44.847650000000002
H      46.992573000000000     51.434100000000001     42.348450000000000
H      49.134003000000000     47.778900000000000     41.359949999999998
H      50.474943000000010     53.150700000000001     45.915350000000004
H      43.673813000000003     44.048600000000000     40.911349999999999
H      45.337803000000001     45.271099999999997     42.872550000000004
H      54.960943000000000     52.677900000000008     43.414650000000009
H      53.319243000000000     53.144900000000000     45.541250000000005
H      51.904243000000008     47.831299999999999     40.906649999999999
H      42.685123000000004     48.096200000000003     38.019849999999991
H      44.456203000000002     49.978000000000002     37.703549999999993
H      41.369793000000001     46.223999999999997     37.449449999999999
H      42.489463000000001     44.570000000000000     37.152549999999991
H      47.210892999999999     52.820700000000002     44.686650000000000
H      48.584793000000005     54.081099999999999     44.803349999999995
H      50.987543000000002     45.510700000000000     49.967849999999999
H      46.720233000000000     46.003100000000003     53.593750000000000
H      50.689442999999997     43.827900000000000     51.480950000000007
H      49.335523000000002     46.351700000000001     45.852949999999993
H      50.735043000000005     45.469500000000004     47.731749999999991
H      47.129563000000005     45.389600000000002     55.719349999999991
H      50.422543000000005     42.130700000000004     55.859549999999999
H      50.893743000000001     42.454200000000000     53.981549999999999
H      44.080503000000000     49.498100000000001     47.717749999999995
H      44.953673000000002     49.221499999999999     45.422649999999990
H      44.263162999999999     48.454500000000003     50.308149999999998
H      44.944163000000003     46.550100000000000     51.460650000000001
H      49.560923000000003     43.680900000000001     58.847450000000009
H      50.179503000000004     42.394700000000000     57.641450000000006
H      48.782903000000005     41.918900000000001     58.846449999999990
H      47.665173000000003     47.869700000000002     44.647750000000002
H      54.449342999999999     48.739699999999999     43.229849999999999
N      46.428763000000004     46.443500000000000     43.795950000000005
N      53.933942999999999     51.276499999999999     42.752349999999993
O      41.039057000000000     44.677199999999999     39.149749999999997
O      53.978842999999998     48.317100000000003     42.380749999999992
O      46.947353000000000     43.696599999999997     57.790550000000010
