18

C      45.348499999999987     47.633499999999984     47.707999999999991
C      46.847500000000004     49.841399999999993     48.224299999999999
C      46.897299999999994     47.403499999999994     47.652100000000004
C      47.602699999999992     48.551299999999998     47.836700000000008
C      47.404199999999996     46.164900000000003     47.100800000000000
C      48.960799999999999     48.653899999999993     47.333800000000004
C      48.847699999999996     46.237200000000001     47.205600000000004
C      49.705999999999996     47.341799999999992     47.062000000000005
H      45.062300000000000     48.128900000000002     46.684100000000001
H      45.246599999999994     48.563900000000004     48.269000000000005
H      46.864699999999992     50.138900000000007     49.315899999999999
H      47.806499999999993     50.748900000000006     48.334100000000007
H      46.891500000000001     45.290700000000001     46.780200000000001
H      49.745699999999992     49.452500000000001     47.021100000000004
H      49.416699999999999     45.251099999999994     46.960599999999999
H      50.949300000000001     47.302099999999996     46.865600000000001
H      45.801200000000001     50.022899999999993     47.560099999999998
H      45.050699999999999     46.598500000000001     47.905500000000004
