36

C      46.780549999999991     46.580099999999987     47.557349999999985
C      45.833250000000000     47.467099999999995     48.318449999999999
C      48.043849999999999     46.850599999999993     47.315449999999998
C      47.875049999999995     44.985499999999995     49.574150000000003
C      48.898649999999996     45.511599999999994     47.479649999999992
C      48.711549999999995     44.789200000000001     48.706450000000004
C      50.022549999999988     45.306400000000004     46.600449999999995
C      49.663549999999994     43.648099999999992     49.085549999999998
C      50.941349999999993     44.347599999999993     46.974549999999994
C      50.719949999999990     43.489399999999996     48.245750000000001
C      48.678649999999998     51.227100000000000     48.054050000000004
C      46.544149999999995     48.609599999999993     49.033149999999992
C      47.380049999999990     51.005900000000004     48.692350000000005
C      46.317349999999998     49.936600000000006     48.383349999999993
C      47.032449999999990     52.130299999999998     49.533749999999998
C      45.063949999999998     50.628899999999994     48.298050000000003
C      45.691749999999992     52.563799999999993     49.444649999999996
C      44.943149999999996     52.056699999999999     48.373750000000001
H      46.453649999999989     45.437700000000000     47.790549999999996
H      45.001449999999998     47.768300000000004     47.659149999999997
H      45.321849999999998     46.725699999999996     48.870850000000004
H      48.510149999999989     47.768300000000004     47.094149999999999
H      47.627249999999997     46.106900000000003     50.033150000000006
H      47.176549999999999     44.047499999999992     49.828649999999996
H      49.928949999999993     46.128099999999996     45.966849999999994
H      49.404449999999990     42.936199999999992     49.982149999999990
H      51.859850000000002     44.268300000000004     46.346149999999994
H      51.375049999999995     42.629299999999994     48.526949999999999
H      49.164749999999991     52.281500000000001     48.138649999999998
H      49.326349999999998     50.561399999999999     47.399149999999992
H      47.538149999999995     48.389900000000004     49.300950000000000
H      45.737349999999999     48.730600000000003     49.792950000000005
H      47.790649999999992     53.042099999999998     50.014550000000000
H      44.140149999999998     50.100699999999996     47.981050000000010
H      45.515549999999998     53.370700000000006     49.969549999999998
H      44.340249999999997     52.735899999999994     47.841250000000002
