45

C      48.928949999999993     47.906299999999995     47.526999999999987
C      49.537649999999999     47.541700000000006     46.300300000000000
C      45.616549999999997     47.841200000000001     44.190700000000000
C      47.412050000000001     48.033700000000010     47.448799999999999
C      48.857250000000001     47.553000000000011     44.953099999999999
C      45.407649999999997     48.073000000000008     45.534399999999998
C      46.793049999999994     47.920100000000005     46.133999999999993
C      47.465949999999999     47.741400000000013     44.990400000000001
C      49.374150000000000     47.877100000000013     48.795200000000001
C      50.906450000000007     47.658000000000001     48.994300000000003
C      51.643550000000005     47.451900000000009     47.799500000000002
C      50.971750000000000     47.665700000000001     46.526699999999998
C      48.478349999999999     48.295400000000001     49.861100000000000
C      48.894949999999994     48.419200000000004     51.256099999999996
C      50.204049999999995     48.151500000000013     51.694200000000002
C      51.105649999999997     47.929300000000012     50.552000000000000
C      46.335949999999997     48.295900000000003     48.391500000000001
C      47.076650000000001     48.568300000000008     49.744099999999996
C      46.542949999999998     48.661000000000001     51.059000000000005
C      45.319849999999995     49.019000000000005     51.895599999999995
C      49.605649999999997     47.662900000000008     43.779999999999994
C      44.200849999999996     49.219700000000003     51.023900000000005
C      50.960250000000002     48.115600000000001     53.043100000000003
C      47.655549999999998     48.718400000000003     51.924100000000003
C      44.371449999999996     48.006500000000003     43.193900000000006
C      51.721649999999997     47.400000000000006     45.270299999999999
H      43.743350000000000     48.901400000000010     43.516600000000004
H      44.342649999999999     48.296000000000006     46.058699999999995
H      52.142949999999999     48.107300000000009     50.857700000000001
H      45.293349999999997     48.537100000000009     48.138600000000004
H      45.485349999999997     49.336700000000008     52.924200000000006
H      49.179449999999989     47.898800000000008     42.776500000000006
H      43.290549999999996     49.603600000000000     51.307799999999993
H      44.177549999999997     49.285000000000011     49.970300000000002
H      50.225449999999995     48.818500000000000     53.373299999999993
H      51.997349999999997     48.412100000000009     52.820500000000003
H      50.961250000000000     47.500300000000010     53.947499999999998
H      47.569550000000000     48.842700000000008     53.016900000000000
H      44.501549999999995     48.006800000000013     42.052500000000002
H      44.002549999999999     46.970200000000006     43.298399999999994
H      52.639649999999996     47.391400000000004     47.579600000000006
H      52.191049999999990     46.396400000000000     45.288900000000005
H      52.709450000000004     47.846800000000002     45.147600000000004
N      46.862549999999999     47.609600000000000     43.831700000000005
O      50.876449999999998     47.615300000000005     43.870700000000006
