40

C      47.475924999999989     48.685249999999989     47.798649999999995
C      47.862224999999988     49.556349999999995     46.756149999999998
C      50.313107180000003     45.874150000000000     45.534750000000010
C      47.778024999999992     47.228449999999995     47.727650000000004
C      48.984424999999995     49.318950000000001     45.713450000000002
C      49.291525000000000     45.721750000000000     46.544850000000004
C      50.136324999999992     47.024449999999995     44.834049999999998
C      48.678624999999990     46.930850000000000     46.653750000000009
C      49.353924999999997     47.971849999999996     45.622149999999998
C      46.502624999999988     48.787649999999999     48.876449999999998
C      45.560524999999991     49.865250000000003     48.675850000000004
C      46.010624999999997     50.905649999999994     47.732450000000007
C      47.100524999999998     50.767650000000003     46.615950000000005
C      46.671524999999995     48.152049999999996     50.051049999999996
C      45.910424999999996     48.481649999999995     51.095550000000010
C      44.518024999999987     49.055049999999994     50.805450000000000
C      44.616324999999996     49.964349999999996     49.769050000000000
C      48.057224999999995     46.568449999999999     49.039850000000008
C      48.666924999999999     45.258249999999997     48.865349999999999
C      49.357124999999989     44.837049999999998     47.698450000000001
C      48.875524999999989     43.999549999999999     49.721049999999998
C      51.334605000000003     44.919750000000001     44.935049999999997
C      45.428724999999993     52.314350000000005     47.676650000000002
H      49.403424999999991     49.979650000000007     44.821350000000002
H      51.020288999999998     47.263349999999996     43.961550000000010
H      47.599724999999999     51.683250000000001     46.266250000000007
H      45.817524999999996     48.034050000000001     52.090049999999998
H      43.683124999999997     49.337849999999989     51.627450000000003
H      44.134124999999990     50.852949999999993     49.606550000000006
H      49.881024999999987     43.876249999999999     47.380749999999999
H      48.333824999999997     43.196950000000001     49.283549999999998
H      48.339524999999988     43.919349999999994     50.714550000000010
H      50.058024999999994     43.895649999999996     49.999249999999996
H      51.754955000000002     45.131450000000001     43.909950000000002
H      52.316875000000003     44.746249999999996     45.430150000000005
H      51.013348000000001     43.880549999999999     45.112150000000007
H      46.314124999999997     52.803049999999999     47.383450000000003
H      44.696424999999998     51.952950000000001     46.827850000000005
H      44.843424999999989     52.225250000000003     48.570950000000003
N      47.654824999999995     47.218750000000000     50.079150000000006
