34

C      46.634949999999989     48.191799999999994     47.650840499999994
C      47.538249999999991     48.657800000000009     46.580740500000005
C      49.951149999999998     45.327900000000007     48.390340499999994
C      46.741450000000000     46.929900000000004     48.254240499999995
C      48.858850000000004     47.976100000000002     46.402540500000001
C      48.620549999999994     45.254200000000004     48.623040500000002
C      47.979150000000004     46.480600000000003     48.042440499999998
C      49.150049999999993     46.959800000000001     47.324040499999995
C      45.527850000000001     49.024199999999993     47.851340500000006
C      44.940449999999998     50.131600000000006     47.079040500000005
C      45.704049999999995     50.429700000000004     45.911540500000001
C      46.894449999999992     49.555300000000003     45.551740499999994
C      45.745850000000004     46.250000000000007     49.198140499999994
C      45.721949999999993     48.579800000000006     50.244940499999998
C      44.980949999999993     49.170000000000002     49.188540500000002
C      50.797249999999991     44.469600000000007     49.123740499999997
C      45.399950000000004     47.348800000000004     50.565440499999994
C      46.714150000000004     49.175100000000000     50.677545500000008
H      49.104450000000000     47.517000000000003     45.414640500000004
H      48.061750000000004     44.534400000000005     49.240640499999998
H      45.311549999999997     51.350800000000007     45.163140499999997
H      47.214950000000002     50.029200000000003     44.515840499999996
H      44.704349999999991     46.367900000000006     48.687440499999994
H      46.286649999999995     45.300500000000007     49.525940500000004
H      44.003749999999997     49.510900000000007     49.423040499999999
H      50.749549999999999     44.063100000000006     50.188740499999994
H      44.072050000000004     51.936899999999994     47.327440499999994
H      45.817149999999998     46.848600000000005     51.484159500000004
H      44.274649999999994     47.396300000000004     50.619740500000006
H      47.553849999999997     48.638000000000005     51.119673500000005
H      46.638149999999996     50.226399999999998     50.523740500000002
N      50.248550000000009     46.393300000000004     47.677940500000005
O      51.996250000000003     44.558400000000006     48.933840500000002
O      44.253550000000004     51.157800000000002     47.617840500000000
