20

C      46.121999999999986     48.966400000000000     48.680049999999987
C      47.070199999999993     50.069800000000001     49.056049999999999
C      46.447600000000001     47.662200000000006     48.368750000000006
C      48.517599999999995     49.435900000000004     49.235749999999996
C      47.818099999999994     47.482900000000008     47.984849999999994
C      48.866700000000002     48.453000000000010     48.167850000000001
C      48.072099999999999     46.205700000000007     47.289850000000001
C      49.991199999999999     48.488700000000009     47.257149999999996
C      49.258900000000004     46.159800000000004     46.576750000000004
C      50.192900000000002     47.248900000000006     46.517849999999996
H      45.013100000000001     48.795000000000009     48.772149999999996
H      46.984900000000003     50.862099999999998     48.419150000000002
H      46.388500000000001     50.220200000000006     50.010249999999999
H      45.727200000000003     46.863700000000009     48.187449999999998
H      49.118400000000001     49.509100000000004     50.245450000000005
H      49.266699999999993     50.272900000000007     48.628450000000001
H      47.385200000000005     45.407500000000006     47.234150000000000
H      50.893499999999996     49.089400000000012     47.102350000000001
H      49.690400000000004     45.137900000000002     46.329849999999993
H      50.986899999999999     47.014500000000005     45.754549999999995
