6

C      47.866099999999989     47.447600000000001     47.822599999999994
C      48.092100000000002     48.829999999999998     48.133599999999994
H      48.404799999999994     46.489199999999997     48.386299999999999
H      47.595200000000006     46.937899999999999     46.922999999999995
H      48.228899999999996     49.510800000000003     49.077000000000005
H      47.857100000000003     49.406599999999997     47.202900000000000
