6

C      47.497049999999987     48.444159999999997     47.943849999999998
C      48.650849999999998     47.720879999999994     47.885350000000003
H      46.628250000000001     48.137810000000002     47.326149999999998
H      47.244349999999997     48.932029999999997     49.055049999999994
H      49.371749999999999     48.260909999999996     48.586249999999993
H      48.924849999999999     47.067970000000003     46.944950000000006
