6

C      48.486000000000004     48.575499999999991     48.167949999999998
C      47.814799999999998     47.686000000000000     47.630350000000000
H      48.313800000000008     49.517400000000002     47.533950000000004
H      49.001500000000000     48.486200000000004     49.139550000000000
H      46.998500000000000     48.094400000000000     46.860450000000000
H      47.847100000000005     46.482599999999998     47.732550000000003
