5

C      47.744849999999992     48.260799999999989     47.938699999999997
H      48.886250000000004     48.642900000000004     47.833399999999997
H      47.340750000000000     48.826799999999999     48.917499999999990
H      47.712649999999996     47.173200000000001     48.393100000000004
H      47.113749999999996     48.676899999999996     47.082500000000010
