9

C      46.918799999999997     48.101050000000001     47.314149999999998
C      49.104600000000005     47.450450000000004     48.319050000000004
C      47.978799999999993     48.507249999999999     48.156250000000000
H      46.732799999999997     47.182950000000005     46.923550000000006
H      46.208600000000004     48.765050000000002     47.252049999999997
H      49.705500000000001     47.951450000000008     49.076449999999994
H      49.791399999999996     47.168050000000008     47.466449999999995
H      47.716399999999993     49.469049999999996     48.939350000000005
H      48.688099999999991     46.530950000000004     48.877650000000003
