17

C      49.553224999999998     46.334399999999995     48.488449999999993
C      46.224685000000001     46.337400000000002     48.472549999999998
C      48.768525000000004     47.334299999999999     47.983049999999992
C      47.227825000000003     47.417500000000004     47.944350000000000
C      49.599624999999996     48.509100000000004     47.572449999999989
C      46.650025000000007     48.718699999999998     47.661549999999991
C      48.920725000000004     49.632700000000000     47.117649999999998
C      47.458625000000005     49.844200000000001     47.278949999999995
H      50.601925000000001     46.613299999999995     48.746749999999992
H      45.247075000000002     46.415499999999994     47.851549999999989
H      49.061325000000004     45.316600000000001     48.597749999999991
H      46.710325000000005     45.235100000000003     48.536549999999991
H      46.150845000000004     47.209000000000003     49.505949999999999
H      50.752924999999998     48.601599999999998     47.362049999999996
H      45.496755000000007     48.821800000000010     47.996049999999997
H      49.696325000000009     50.293300000000002     46.721149999999994
H      47.255125000000007     50.764899999999997     46.494050000000001
