18

C      47.062449999999991     46.319149999999993     47.182249999999989
C      46.138649999999998     49.161849999999994     47.100949999999997
C      47.899850000000001     47.398650000000004     47.818649999999998
C      47.354249999999993     48.727950000000000     47.887949999999996
C      49.180350000000004     47.534450000000000     48.279849999999996
C      48.077850000000005     49.834650000000003     48.503949999999989
C      50.007549999999995     48.614550000000001     48.967950000000002
C      49.433050000000009     49.912749999999996     49.058350000000004
H      46.479050000000001     50.172850000000004     46.644149999999996
H      46.698149999999998     46.604449999999993     46.256149999999998
H      46.170250000000003     45.968850000000003     47.850749999999998
H      47.521850000000001     45.288249999999998     47.117649999999998
H      45.771050000000002     48.416350000000001     46.362450000000003
H      49.924450000000000     46.792049999999996     48.603149999999999
H      47.693049999999999     50.711750000000002     48.712049999999991
H      50.859150000000000     48.387349999999998     49.547449999999998
H      50.022649999999999     50.699549999999995     49.743850000000002
H      45.140850000000000     49.535249999999998     48.061450000000001
