16

C      46.143349999999991     47.274599999999992     46.794275499999991
C      47.965249999999997     49.601899999999993     46.168115499999999
C      47.342249999999993     47.149000000000001     47.098565499999999
C      48.206850000000003     48.407599999999995     46.831505499999992
C      47.459450000000004     46.754300000000001     48.497545500000001
C      49.506149999999998     48.238999999999997     47.484355499999999
C      48.378850000000000     47.254200000000004     49.417595499999997
C      49.598749999999995     48.125599999999999     48.878915500000005
H      46.078049999999998     47.875000000000000     45.738774499999998
H      45.633049999999997     46.434000000000005     47.516245499999997
H      48.820149999999998     50.147200000000005     45.771912499999999
H      46.928749999999994     49.796100000000003     45.984310499999999
H      46.912049999999994     45.852799999999995     48.742955500000001
H      50.366950000000003     48.723000000000006     47.325005500000003
H      48.325649999999996     46.567799999999998     50.261225500000002
H      50.353349999999992     48.625999999999998     49.373605499999996
