32

C      50.443950000000001     49.912129999999991     45.720049999999986
C      47.641449999999999     49.222329999999999     46.634149999999998
C      49.931249999999999     50.009949999999996     47.151350000000001
C      48.708950000000009     49.547489999999996     47.501749999999994
C      50.645550000000007     50.080959999999997     48.373349999999995
C      48.547649999999997     49.509449999999994     49.190850000000005
C      49.597950000000004     49.964049999999993     49.640750000000004
C      51.907150000000009     50.386129999999987     48.805050000000001
C      44.293750000000010     46.555949999999996     48.627549999999992
C      44.509549999999997     47.849329999999995     48.003149999999998
C      45.428649999999998     46.067779999999999     49.226649999999999
C      45.961950000000009     47.963239999999999     47.919850000000004
C      46.539650000000002     46.833610000000000     48.804650000000002
C      46.481850000000001     48.627369999999999     46.815149999999996
C      47.962550000000000     46.726520000000001     48.944250000000004
C      49.070650000000008     46.451249999999995     46.499649999999995
C      48.585950000000004     46.737579999999994     47.672850000000004
H      52.669249999999998     50.122560000000000     47.942450000000001
H      49.911450000000009     50.700380000000003     45.181350000000002
H      49.930750000000010     49.082699999999996     45.249350000000000
H      51.532550000000008     50.433110000000006     45.458250000000000
H      45.854750000000003     48.698319999999995     45.876950000000001
H      47.824150000000010     49.536220000000000     45.537249999999993
H      47.592150000000011     49.113519999999994     49.746249999999996
H      49.957550000000005     50.388790000000000     50.818649999999998
H      52.096449999999997     50.137229999999995     49.833049999999993
H      43.330750000000002     46.137999999999998     48.711949999999995
H      43.884350000000005     48.530870000000000     47.346349999999994
H      45.558349999999997     45.481999999999999     50.038149999999995
H      49.141350000000010     45.299619999999997     46.313549999999999
H      48.686650000000007     46.843409999999999     49.826450000000001
H      49.146549999999998     47.227460000000001     45.716149999999992
