6

C      48.447999999999993     47.556954999999988     47.742099999999994
C      47.504199999999997     48.255845000000008     48.131900000000002
H      49.123799999999989     47.305374999999998     48.557300000000005
H      49.191400000000002     47.684065000000004     46.877000000000002
H      46.808599999999998     48.694625000000002     47.484299999999998
H      47.061499999999995     48.064885000000004     49.122999999999998
