6

C      47.352399999999989     48.132749999999994     47.862949999999998
C      48.536200000000001     47.546850000000006     48.282150000000001
H      47.045700000000004     49.247249999999994     48.193149999999989
H      47.023699999999998     48.194749999999999     46.881450000000001
H      48.976300000000002     46.752750000000006     48.044449999999998
H      48.900799999999997     47.923349999999999     49.118549999999999
