6

C      48.465449999999990     48.089299999999994     48.532049999999998
C      47.454850000000000     48.032599999999995     47.581449999999997
H      49.538350000000001     48.594900000000003     48.203150000000001
H      47.992750000000001     47.405099999999997     49.414650000000002
H      46.461649999999999     47.589099999999995     47.721049999999998
H      47.509149999999998     48.255900000000004     46.585349999999998
