23

C      44.491249999999987     49.886400000000002     49.194599999999994
C      50.129149999999996     48.721100000000007     47.800399999999996
C      47.727549999999994     46.043599999999998     47.356499999999997
C      48.904650000000004     48.763400000000004     47.766799999999996
C      46.971549999999993     47.379199999999997     47.138999999999996
C      47.470650000000006     48.686199999999999     47.599699999999999
C      45.704549999999998     47.503799999999998     46.480100000000000
C      46.784949999999995     49.617199999999997     48.213999999999999
C      44.933350000000004     48.290400000000005     47.423899999999996
C      45.478549999999998     49.193500000000000     48.310299999999998
C      51.641469999999998     48.493099999999998     47.640799999999999
H      44.493650000000002     49.295699999999997     50.116599999999998
H      43.692049999999995     49.522900000000007     48.503999999999998
H      45.004249999999999     50.837299999999999     49.489899999999999
H      48.108649999999997     45.889099999999999     48.498399999999997
H      47.057749999999999     45.162700000000001     47.299499999999995
H      51.878670000000014     48.129700000000000     46.621600000000001
H      45.114649999999997     46.638599999999997     45.883400000000002
H      47.065950000000001     50.510199999999998     48.870599999999996
H      43.791049999999998     48.048900000000003     47.344200000000001
H      48.893249999999995     46.124600000000001     47.080700000000000
H      52.306120000000007     47.863900000000001     48.174499999999995
H      52.307950000000005     49.254900000000006     48.113199999999999
