6

C      47.368449999999996     48.124349999999993     47.982049999999994
C      48.750749999999996     48.140349999999998     48.007750000000001
H      47.163950000000000     47.426449999999996     47.024650000000001
H      49.297849999999997     47.585449999999994     47.095150000000004
H      46.702150000000003     48.223250000000000     48.870049999999999
H      49.275949999999995     48.573550000000004     48.975349999999999
