45

C      48.222499999999997     44.322699999999990     47.295140000000004
C      49.496900000000004     44.831599999999995     46.918940000000006
C      46.100000000000001     51.313299999999998     48.331540000000004
C      50.442699999999995     50.581800000000001     46.113830000000007
C      47.059900000000006     45.203500000000005     47.638540000000006
C      47.481500000000004     51.898099999999999     47.959940000000003
C      49.403699999999994     51.379400000000004     46.572659999999999
C      45.860199999999999     49.904200000000003     48.664640000000006
C      49.787900000000000     46.309399999999997     46.955840000000009
C      49.940999999999995     49.236899999999999     46.126660000000001
C      46.449700000000000     47.562300000000000     47.748140000000006
C      48.381099999999996     50.914900000000003     47.439639999999997
C      47.391500000000001     46.559600000000003     47.662239999999997
C      46.763299999999994     48.930599999999998     48.044440000000009
C      48.709300000000006     47.188299999999998     47.238140000000001
C      49.000599999999999     48.600300000000004     47.015340000000009
C      48.037600000000005     49.527900000000002     47.616039999999998
C      48.152999999999999     42.968899999999998     47.736739999999998
C      48.871299999999998     41.886899999999997     47.130040000000008
C      49.986799999999995     42.374499999999998     46.339020000000005
C      50.370399999999997     43.736999999999995     46.271630000000002
C      45.156300000000002     52.259599999999992     48.664140000000003
C      45.185099999999998     53.650499999999994     48.397239999999996
C      46.331099999999999     54.075900000000004     47.820639999999997
C      47.469199999999994     53.190500000000000     47.516239999999996
C      51.656699999999994     50.774900000000002     46.085380000000001
C      44.826599999999999     49.430799999999998     49.575940000000003
H      46.205399999999997     44.814000000000000     48.209540000000004
H      49.596899999999998     52.459699999999998     46.717240000000004
H      50.813200000000002     46.635999999999996     46.747039999999998
H      51.105300000000007     48.979900000000001     45.653440000000003
H      45.327800000000003     47.286699999999996     48.195740000000001
H      47.388700000000007     42.825800000000001     48.416740000000004
H      48.605300000000007     40.881399999999999     47.516139999999993
H      51.412699999999994     44.019800000000004     45.894970000000001
H      44.539600000000000     54.428799999999995     48.762839999999997
H      46.806300000000000     55.118600000000001     47.888940000000005
H      48.322099999999999     53.506500000000003     47.039040000000000
H      43.377800000000001     51.033500000000004     49.344440000000006
H      52.179499999999997     51.675299999999993     45.517260000000007
H      52.622199999999999     50.430799999999991     46.632339999999999
H      44.162500000000001     48.666100000000000     49.102540000000005
H      45.015599999999999     49.841499999999996     50.482739999999993
H      50.810899999999997     41.657399999999996     46.047920000000005
O      43.951599999999999     51.795000000000002     49.086640000000003
