6

C      47.958499999999994     47.464949999999995     47.458949999999987
C      47.951700000000002     48.543650000000000     48.397049999999993
H      48.398499999999999     47.899249999999995     46.504449999999999
H      47.506500000000003     46.517550000000000     47.536449999999995
H      48.494500000000002     49.482450000000000     48.560549999999999
H      47.505499999999998     48.311750000000004     49.495550000000001
