5

C      48.114500000000000     47.875249999999994     47.965149999999994
H      47.325800000000001     47.966650000000008     47.200550000000000
H      48.586600000000004     47.274949999999997     47.300350000000002
H      47.925300000000007     47.405050000000010     48.799450000000000
H      48.674199999999999     48.725050000000003     48.210749999999997
