22

C      49.408299999999997     46.371949999999991     48.924450000000000
C      48.382899999999999     45.625349999999997     48.022250000000000
C      49.831600000000002     47.641249999999999     48.070350000000005
C      47.155899999999995     46.541749999999993     48.187250000000006
C      48.536799999999992     48.263249999999999     47.317650000000000
C      47.258099999999992     47.812650000000005     47.286550000000005
C      48.855799999999995     49.569049999999997     46.848550000000003
C      46.099799999999995     48.587249999999997     46.902150000000006
C      47.593100000000000     50.243849999999995     46.789150000000006
C      46.156199999999991     49.960850000000001     46.642150000000001
H      50.245899999999999     45.469449999999995     49.173150000000007
H      48.767999999999994     46.531050000000008     49.878050000000002
H      47.934699999999999     44.692949999999996     48.388549999999995
H      48.493599999999994     45.412250000000000     46.974450000000004
H      50.783099999999997     47.438549999999999     47.469650000000001
H      50.566299999999991     48.213949999999997     48.654449999999997
H      46.726599999999998     46.894749999999988     49.180650000000000
H      45.923499999999997     46.371150000000000     48.137050000000002
H      49.761899999999990     50.278849999999991     46.950249999999997
H      45.216900000000003     47.964050000000000     46.763649999999998
H      47.643700000000003     51.307050000000004     46.784049999999993
H      45.460799999999999     50.625850000000000     46.121949999999998
