49

C      47.473450000000000     47.150599999999990     48.841949999999990
C      48.784550000000003     47.814999999999998     48.913550000000001
C      45.384550000000004     51.426900000000003     48.364249999999998
C      46.469250000000009     51.934899999999999     47.535249999999998
C      46.335050000000003     48.058000000000007     49.254149999999996
C      48.965250000000005     49.216999999999999     48.739449999999998
C      45.267350000000000     50.254300000000001     49.266850000000005
C      47.766750000000009     51.146900000000002     47.585049999999995
C      46.423350000000006     49.410100000000000     49.031549999999996
C      47.697850000000010     49.954000000000008     48.398849999999996
C      47.386250000000004     45.814999999999998     48.982549999999996
C      48.496150000000007     44.725899999999996     49.020649999999989
C      49.707350000000012     45.531000000000006     49.060949999999998
C      49.946050000000007     46.958300000000008     48.790050000000001
C      44.249950000000005     52.208500000000001     48.066949999999999
C      43.977150000000002     53.233699999999999     47.052949999999996
C      44.993050000000004     53.499099999999999     46.276849999999996
C      46.220950000000009     52.810200000000009     46.542349999999999
C      46.266450000000006     45.248100000000008     49.727249999999998
C      46.045450000000010     43.878000000000000     49.486350000000002
C      46.866450000000007     42.979500000000002     48.743150000000000
C      48.259250000000002     43.435200000000009     48.634549999999997
C      45.379950000000001     47.326800000000006     50.096649999999997
C      50.250650000000000     49.860600000000005     48.446449999999999
C      51.357150000000011     49.037000000000006     48.498149999999995
C      51.299150000000004     47.612400000000008     48.570650000000001
C      43.033550000000005     52.341200000000001     48.990349999999999
C      52.561650000000007     49.944000000000003     48.372250000000001
C      52.525449999999999     46.880000000000010     48.894450000000006
H      52.669650000000011     50.846500000000006     47.559350000000002
H      44.313250000000004     50.089300000000009     49.733449999999991
H      48.470050000000008     51.278400000000005     46.672049999999999
H      50.354050000000008     44.513199999999998     49.410150000000002
H      42.974350000000008     53.505099999999999     46.785350000000001
H      44.918750000000010     54.134799999999998     45.459350000000001
H      46.975050000000003     53.137200000000007     45.752249999999997
H      45.206950000000006     43.323200000000000     49.991649999999993
H      46.369050000000009     41.920200000000008     48.652149999999999
H      44.668350000000004     48.090000000000003     50.540649999999999
H      50.435650000000003     50.892899999999997     48.347450000000002
H      42.449750000000002     51.689700000000002     48.564949999999996
H      53.550249999999998     49.360700000000008     48.523550000000000
H      52.365250000000010     45.814000000000007     49.394849999999998
H      52.246250000000011     51.007599999999996     49.103149999999999
H      53.354850000000006     47.573300000000003     49.296250000000001
H      48.811650000000007     41.865200000000002     46.745849999999997
N      45.419250000000005     46.023300000000006     50.389949999999999
O      42.452050000000007     53.405799999999999     49.230049999999991
S      49.550950000000007     42.245800000000003     47.845950000000002
