21

C      49.753749999999997     49.165974999999989     45.979049999999987
C      49.084049999999998     47.979574999999997     46.760149999999989
C      48.551549999999999     46.134785000000001     48.774549999999998
C      48.145949999999999     48.561675000000001     47.871850000000002
C      47.804850000000002     47.548974999999999     48.776149999999994
C      47.368250000000003     49.909375000000004     47.959150000000001
C      46.739350000000002     47.766075000000001     49.632849999999983
C      46.376449999999998     49.956875000000004     48.998449999999984
C      45.771349999999998     48.892274999999998     49.736449999999998
H      50.734749999999998     48.682274999999997     45.417049999999996
H      49.002150000000000     49.832574999999999     45.562549999999995
H      48.017450000000004     45.098824999999998     48.626849999999997
H      49.766449999999999     47.004075000000000     47.107349999999997
H      48.740650000000002     47.311875000000001     46.003849999999993
H      48.851150000000004     46.003225000000000     49.796749999999996
H      49.124949999999998     45.917314999999995     47.970549999999996
H      47.314050000000002     50.508575000000000     47.087649999999989
H      46.335450000000002     46.754035000000002     50.186449999999986
H      45.733150000000002     50.901175000000002     49.095750000000002
H      45.265250000000002     49.105575000000002     50.582950000000004
H      50.156350000000003     49.736574999999995     46.810549999999992
