5

C      47.904699999999984     47.961899999999993     47.946749999999994
H      47.512400000000000     48.406300000000002     48.962849999999996
H      48.286599999999993     48.816000000000003     47.247050000000002
H      48.694900000000004     47.183999999999997     48.393350000000005
H      47.305099999999996     47.579000000000001     47.037150000000004
