16

C      48.815390499999992     45.961649999999992     49.414349999999985
C      49.454008499999993     46.893450000000001     46.620150000000002
C      48.162090499999998     46.955749999999995     48.728149999999992
C      48.742090499999996     47.668150000000011     47.423650000000002
C      47.151490500000001     47.783850000000001     49.369549999999997
C      48.622990499999993     48.938749999999999     47.025649999999992
C      46.881290499999999     49.144250000000000     49.018349999999991
C      47.719090500000000     49.602550000000008     47.922649999999997
H      48.378190499999995     45.727950000000007     50.422750000000001
H      49.721009500000001     45.321849999999998     49.150449999999999
H      49.403453500000005     45.849050000000005     46.767549999999993
H      49.706723500000003     47.287649999999999     45.577249999999999
H      46.588590500000002     47.414450000000002     50.347450000000002
H      49.123433499999997     49.474649999999997     46.326649999999994
H      46.278990499999999     50.027349999999998     49.423150000000000
H      47.891990499999999     50.678150000000002     47.890650000000001
