8

C      47.869399999999992     48.334599999999995     48.646869999999993
C      48.548800000000000     48.090899999999998     47.299930000000003
H      47.948200000000000     47.081600000000002     49.225509999999993
H      48.604399999999998     48.708400000000005     49.391019999999997
H      46.769700000000000     48.690500000000007     48.672320000000006
H      47.796700000000001     47.679499999999997     46.608980000000003
H      49.033900000000003     47.137800000000006     47.626950000000001
H      49.230300000000000     48.918399999999998     47.071420000000003
