48

C      48.866449999999993     53.323799999999991     48.743399999999987
C      49.926749999999998     52.364699999999999     48.993099999999998
C      44.964349999999996     42.685899999999997     46.655900000000003
C      43.981749999999998     43.519199999999998     47.305199999999999
C      46.210549999999998     43.173799999999993     46.936800000000005
C      47.611649999999997     52.620999999999995     48.662499999999994
C      49.671949999999995     50.881899999999995     49.122699999999995
C      47.709249999999997     44.859299999999998     47.251300000000001
C      47.883350000000000     46.241999999999997     47.610699999999994
C      45.957449999999994     50.693999999999996     48.230999999999995
C      48.185249999999996     48.905000000000001     48.362799999999993
C      46.213849999999994     44.607899999999994     47.072099999999992
C      47.338749999999997     51.227100000000000     48.720600000000005
C      48.347049999999996     50.342399999999998     48.728799999999993
C      45.606150000000000     49.282299999999999     48.022999999999996
C      45.135649999999998     45.435600000000001     47.743300000000005
C      46.646450000000002     47.050799999999995     47.990899999999996
C      46.857650000000000     48.508899999999997     47.855800000000002
C      45.308149999999998     46.745399999999997     47.944800000000001
C      49.220650000000006     46.662799999999997     47.878100000000003
C      49.302750000000003     48.029899999999998     48.493399999999994
C      50.533249999999995     48.444399999999995     49.007199999999997
C      50.819450000000003     49.863299999999995     49.111599999999996
C      51.299250000000001     52.838999999999999     49.442599999999999
C      52.076949999999997     51.854900000000001     49.867099999999994
C      52.021049999999995     50.405299999999997     49.508300000000006
C      47.675150000000002     42.594000000000001     46.704599999999999
C      48.158149999999999     41.152700000000003     46.756799999999998
C      48.523849999999996     43.692000000000000     46.866399999999999
C      48.943349999999995     54.629399999999997     47.919699999999992
H      44.980950000000000     41.617699999999999     46.290700000000001
H      42.988650000000000     42.938799999999993     47.191900000000004
H      46.810249999999996     53.330099999999995     48.615700000000004
H      44.909149999999997     51.092399999999998     48.519199999999998
H      49.973349999999996     46.047300000000000     48.237899999999996
H      51.366349999999997     47.638399999999997     49.137299999999996
H      53.011350000000000     52.185899999999997     50.227800000000002
H      51.798449999999988     53.774899999999995     49.793800000000005
H      52.957450000000001     49.718899999999998     49.294100000000000
H      47.582949999999997     40.531699999999994     47.469799999999992
H      49.285950000000000     41.400999999999996     47.001099999999994
H      48.680349999999997     40.825200000000002     45.772199999999998
H      49.701149999999998     43.569799999999994     46.997100000000003
H      48.335850000000001     55.468300000000006     48.478300000000004
H      49.938749999999999     54.859200000000001     47.908500000000004
H      48.602249999999998     54.432199999999987     46.878399999999999
N      44.039249999999996     44.736799999999995     47.813299999999998
S      44.051249999999996     48.243199999999995     47.803100000000001
