16

C      48.732849999999992     46.304449999999996     47.134999999999991
C      48.959650000000003     47.722949999999997     49.926799999999993
C      48.503650000000000     47.513350000000003     47.179099999999998
C      48.163150000000002     47.896249999999995     48.675800000000002
C      48.226250000000000     48.373249999999999     46.174599999999998
C      47.003550000000004     48.688050000000004     48.931300000000000
C      47.263350000000003     49.480050000000006     46.486699999999999
C      46.737949999999998     49.492949999999993     47.741199999999999
H      49.194950000000006     45.660250000000005     46.350199999999994
H      48.057350000000000     45.681150000000002     47.831899999999997
H      48.265850000000000     47.905150000000006     50.669800000000002
H      48.545650000000002     48.046049999999994     45.330199999999998
H      46.764350000000000     49.232249999999993     49.892999999999994
H      46.738250000000001     50.161749999999998     45.769100000000002
H      46.135350000000003     50.339749999999995     47.678099999999993
H      49.864649999999997     46.902749999999997     50.098300000000002
