33

C      45.371249999999996     47.887514999999993     49.116599999999991
C      47.794449999999998     47.206425000000003     47.012900000000002
C      45.094650000000001     46.822004999999997     47.957500000000010
C      46.455050000000000     46.517344999999999     47.403000000000006
C      44.021850000000001     45.813355000000001     48.101200000000006
C      46.530950000000004     45.271155000000000     46.731700000000004
C      44.169049999999999     44.706634999999999     47.340400000000002
C      45.406050000000008     44.451045000000001     46.729399999999998
C      50.604150000000004     47.382655000000000     48.472300000000004
C      47.958250000000007     48.746715000000002     46.941100000000006
C      50.323750000000004     48.766714999999998     47.915300000000002
C      49.239850000000004     49.241314999999993     47.029899999999998
C      51.526049999999998     49.458815000000001     48.215699999999998
C      49.129350000000002     50.659015000000004     46.509000000000000
C      51.375749999999996     50.637814999999996     47.419800000000009
C      50.284750000000003     51.376914999999990     46.701800000000006
H      45.701549999999997     47.482514999999999     50.085200000000000
H      46.316350000000000     48.182875000000003     48.680199999999999
H      44.571150000000003     48.636185000000005     49.420900000000003
H      48.030150000000006     47.142454999999998     45.914800000000000
H      51.090150000000008     47.625644999999999     49.391800000000003
H      43.594450000000009     45.837384999999998     49.119300000000010
H      47.524150000000006     44.919914999999996     46.523899999999998
H      43.550849999999997     43.760705000000002     47.475800000000007
H      45.403850000000006     43.373685000000002     46.193100000000001
H      52.449150000000003     49.208314999999999     48.765900000000002
H      49.628950000000003     46.983314999999997     48.914500000000004
H      51.249949999999998     46.578085000000002     47.865600000000001
H      47.057450000000003     49.215614999999993     46.696700000000007
H      48.554150000000007     46.920385000000003     47.732900000000001
H      48.102750000000000     51.455815000000001     46.581299999999999
H      52.273949999999999     50.867415000000001     46.874600000000001
H      50.146050000000002     52.626314999999998     46.238300000000010
