6

C      48.653300000000002     48.031349999999989     48.379799999999989
C      47.413100000000000     48.137850000000000     47.914899999999996
H      48.727699999999999     47.341449999999995     49.108399999999996
H      49.591999999999999     48.611350000000002     47.941499999999998
H      47.233000000000004     48.658550000000005     46.891600000000004
H      46.408000000000001     47.602249999999998     48.114500000000000
