16

C      48.120799999999996     48.086449999999999     45.754949999999994
C      48.450899999999990     49.437649999999998     46.073649999999994
C      48.076300000000003     47.576249999999995     47.183149999999991
C      46.980499999999992     47.952350000000003     47.879550000000002
C      48.950599999999994     46.654249999999998     47.700550000000000
C      47.037399999999991     48.027750000000005     49.276950000000006
C      48.891700000000000     46.486950000000000     49.177849999999999
C      48.166600000000003     47.510950000000001     49.915249999999993
H      46.319999999999993     48.400550000000003     47.287749999999996
H      47.524999999999991     47.813949999999998     44.946750000000002
H      48.805499999999995     49.980349999999994     47.050649999999997
H      48.380600000000001     50.349650000000004     45.337350000000001
H      49.744900000000001     46.180150000000005     47.166750000000000
H      46.255099999999999     48.391050000000000     49.748950000000001
H      49.220500000000001     45.650349999999996     49.851949999999995
H      48.132599999999996     47.414149999999999     51.053249999999998
