22

C      48.350249999999988     49.040849999999992     50.110449999999986
C      47.420249999999996     49.913450000000005     49.330049999999993
C      47.844749999999998     47.624350000000000     50.234249999999996
C      46.735749999999996     49.123449999999998     48.276549999999993
C      48.215350000000001     47.101250000000000     48.755249999999997
C      47.350349999999999     47.786549999999998     47.886649999999996
C      49.158149999999999     46.052750000000003     48.223049999999994
C      47.329450000000001     47.462750000000000     46.497849999999993
C      49.206849999999996     45.808850000000000     46.890949999999997
C      48.301649999999995     46.479149999999997     46.036149999999999
H      48.778749999999995     49.586649999999999     51.064050000000002
H      49.295049999999996     48.780349999999999     49.535149999999994
H      46.765650000000001     50.594149999999999     49.940350000000002
H      47.754649999999998     50.744750000000003     48.655349999999991
H      48.202449999999999     47.128650000000000     51.025849999999998
H      46.606049999999996     47.578749999999999     50.225949999999990
H      45.998649999999998     49.507050000000000     47.674749999999996
H      46.018049999999995     48.876750000000001     49.051250000000003
H      49.759949999999996     45.406450000000000     48.806149999999995
H      46.662050000000001     47.878450000000001     45.809049999999992
H      50.001350000000002     45.255249999999997     46.329050000000002
H      48.225949999999997     46.087850000000003     44.935949999999998
