6

C      48.211504999999988     48.488749999999989     48.066649999999996
C      47.682085000000001     47.411349999999999     47.957850000000001
H      48.052755000000005     46.738149999999990     47.134450000000008
H      48.317914999999999     49.268450000000001     47.036549999999998
H      47.893685000000005     46.731549999999999     48.846650000000004
H      48.015934999999999     49.235849999999999     48.963450000000002
