6

C      48.201429999999995     48.545099999999991     47.408400000000000
C      48.260280000000009     47.941000000000003     48.435499999999998
H      47.251750000000001     49.155099999999997     47.340800000000009
H      48.748249999999999     48.137400000000000     46.436500000000002
H      48.121780000000001     46.844900000000003     48.405600000000000
H      48.289349999999999     48.049199999999999     49.563499999999998
