19

C      47.231449999999988     48.166899999999991     45.547049999999984
C      50.369550000000004     48.670699999999997     46.899150000000006
C      46.882549999999995     46.955100000000002     46.215449999999990
C      49.580950000000001     47.877200000000002     47.518250000000009
C      47.344350000000006     47.049499999999995     47.634950000000003
C      48.580550000000002     47.139899999999997     48.276150000000001
C      46.290649999999999     47.469200000000001     48.619749999999996
C      48.982749999999996     47.272999999999996     49.676649999999995
C      46.521550000000005     47.289500000000004     49.964749999999995
C      47.866150000000005     47.074900000000000     50.543850000000006
H      48.026449999999997     48.960800000000006     45.953049999999990
H      46.927650000000000     48.521100000000004     44.422349999999994
H      50.659450000000007     48.339100000000002     45.851450000000000
H      46.028450000000007     46.374499999999998     45.650950000000009
H      50.834249999999997     49.625500000000002     47.164349999999999
H      45.165750000000003     47.433199999999999     48.174149999999997
H      49.988050000000001     47.372799999999998     49.813350000000000
H      45.687349999999995     47.395399999999995     50.713149999999999
H      47.665350000000004     47.281199999999998     51.577650000000006
