17

C      46.721099999999993     49.690249999999992     47.780199999999994
C      46.060800000000000     47.441449999999996     49.228799999999993
C      47.564400000000006     48.623149999999995     47.316599999999994
C      47.264499999999998     47.500749999999996     48.139799999999994
C      48.824400000000011     48.530449999999995     46.498699999999999
C      48.276600000000002     46.646249999999995     48.321099999999987
C      49.887600000000006     47.693649999999998     46.662499999999994
C      49.600700000000003     46.571549999999995     47.537999999999997
H      46.085700000000003     48.316150000000000     50.068399999999997
H      45.876000000000005     50.299650000000000     47.293499999999995
H      45.167299999999997     47.758649999999996     48.406800000000004
H      46.445300000000003     46.459849999999996     49.489199999999997
H      48.583200000000005     49.513249999999999     46.056200000000004
H      48.377300000000005     46.130249999999997     49.345500000000001
H      50.832700000000003     47.559049999999999     45.931600000000003
H      50.112600000000015     45.700350000000000     47.782600000000002
H      45.990200000000002     49.557949999999998     48.611800000000002
