5

C      47.942999999999984     48.140949999999989     48.007199999999997
H      48.482599999999991     47.111550000000001     48.287800000000004
H      47.297200000000004     48.087250000000004     47.233900000000006
H      47.999499999999998     48.888449999999999     48.944899999999997
H      48.702799999999996     48.368249999999996     47.055100000000003
