35

C      47.404999999999994     48.445899999999988     50.461199999999991
C      47.583500000000001     47.359099999999998     49.533999999999999
C      47.840599999999995     48.607500000000002     43.824999999999996
C      47.332100000000004     49.834900000000005     50.059699999999999
C      46.605699999999999     51.722099999999998     45.589299999999994
C      48.030000000000001     47.666600000000003     48.226999999999997
C      48.132500000000000     48.359799999999993     45.350699999999996
C      47.253000000000000     51.205699999999993     47.758499999999998
C      47.566099999999999     50.042699999999996     48.653099999999995
C      47.147399999999998     50.753500000000003     46.419799999999995
C      47.734099999999998     48.894899999999993     47.693700000000000
C      47.703499999999998     49.269999999999996     46.372599999999998
C      48.703400000000002     46.824799999999996     47.164899999999996
C      48.481099999999998     47.018600000000006     45.772999999999996
C      47.144800000000004     47.848200000000006     51.793299999999995
C      47.587400000000002     46.576899999999995     52.169999999999995
C      48.339900000000000     45.614000000000004     51.444099999999999
C      48.318299999999994     46.199200000000005     50.140099999999997
C      49.164300000000011     45.387199999999993     49.189399999999999
C      48.745200000000004     45.578900000000004     47.864500000000000
C      49.238399999999999     44.667199999999994     46.797199999999997
H      45.924399999999999     52.256299999999996     46.090899999999998
H      46.784199999999998     52.334000000000003     48.127599999999994
H      48.069699999999997     46.139600000000002     45.227199999999996
H      47.207700000000003     46.397099999999995     53.310700000000004
H      48.850800000000007     44.793800000000005     51.907199999999996
H      49.235500000000002     44.399500000000003     49.378299999999996
H      50.075600000000001     45.276499999999999     46.271999999999998
H      47.135400000000004     50.601699999999994     50.862299999999998
H      47.151000000000003     50.644499999999994     44.061399999999999
H      48.814599999999999     44.245000000000005     45.937899999999999
H      49.516000000000005     43.665999999999997     47.396499999999996
H      46.455900000000000     48.502799999999993     52.192599999999992
N      47.827400000000011     48.696899999999999     42.689299999999996
O      46.486600000000003     51.395399999999995     44.296499999999995
