6

C      47.955449999999992     48.493050000000004     47.709589999999984
C      48.037149999999997     47.442550000000011     48.483783800000005
H      47.541550000000001     48.228650000000002     46.641289999999998
H      47.940349999999995     49.579250000000002     47.511789999999991
H      48.458449999999999     48.015550000000005     49.358710000000002
H      47.830249999999992     46.420749999999998     48.091989999999996
