19

C      46.565550000000002     48.002999999999993     50.229149999999997
C      48.337050000000005     46.120400000000004     48.844250000000002
C      49.327550000000002     47.750999999999998     46.638850000000005
C      47.664349999999999     47.332900000000002     48.240949999999998
C      48.111149999999995     47.711199999999998     46.842749999999995
C      47.058650000000000     48.420500000000004     48.851650000000006
C      47.265850000000000     48.390100000000004     46.118949999999998
C      46.988249999999994     49.720199999999991     48.165850000000006
C      47.145849999999996     49.685299999999998     46.829049999999995
H      46.024550000000005     48.745100000000008     50.920850000000002
H      47.406350000000003     47.658400000000000     50.834649999999996
H      45.962950000000006     47.007199999999997     50.128450000000001
H      49.480249999999998     46.792000000000002     46.246750000000006
H      49.450450000000004     45.863599999999998     48.922950000000000
H      47.706549999999993     45.344099999999997     48.758049999999997
H      50.037049999999994     48.617400000000004     46.704149999999998
H      47.349450000000004     48.510499999999993     45.079149999999998
H      46.761449999999996     50.598200000000006     48.865449999999996
H      46.858649999999997     50.655900000000003     46.401849999999996
