6

C      48.273949999999985     47.487649999999995     47.682699999999990
C      47.912349999999996     48.290950000000002     48.548699999999997
H      48.823749999999997     47.544049999999999     46.699900000000000
H      48.785149999999994     46.724750000000000     48.102199999999996
H      47.176250000000003     47.831450000000004     49.300100000000000
H      47.578449999999997     49.275250000000000     48.196899999999999
