82

C      52.976999999999990     52.358199999999997     49.493699999999990
C      53.144099999999995     51.415700000000001     48.377600000000001
C      44.680000000000007     49.565000000000005     48.073999999999998
C      45.745099999999994     49.045900000000003     47.099800000000002
C      52.224699999999999     51.758900000000004     50.730200000000011
C      52.171499999999995     50.402300000000004     48.054500000000004
C      45.094600000000000     50.200800000000001     49.261300000000006
C      47.342699999999994     48.999299999999998     47.454700000000003
C      49.811000000000007     51.468700000000005     50.909599999999998
C      47.260499999999993     50.458400000000005     50.821600000000004
C      49.994000000000000     49.559000000000005     48.447699999999998
C      50.932299999999998     51.201600000000006     50.220400000000012
C      51.053799999999995     50.335000000000001     49.054800000000000
C      46.637900000000002     50.192000000000000     49.532300000000006
C      48.711100000000002     50.696100000000001     50.478099999999998
C      47.643699999999995     49.451000000000001     48.854100000000003
C      48.893500000000003     49.606299999999997     49.496600000000001
C      48.440700000000007     48.862900000000003     46.615399999999994
C      49.816900000000004     49.141399999999997     47.128399999999999
C      51.110100000000003     49.093899999999998     46.406999999999996
C      52.294899999999998     49.735000000000007     46.720200000000006
C      53.692899999999995     53.457000000000001     49.919499999999999
C      54.776100000000014     53.639200000000002     48.838600000000000
C      54.911299999999997     52.877199999999995     47.642899999999997
C      54.120800000000003     51.673300000000005     47.372299999999996
C      54.697199999999995     50.927700000000002     46.306399999999996
C      53.698200000000000     49.917600000000000     46.219899999999996
C      53.546400000000006     54.430100000000003     50.976200000000006
C      46.271299999999997     50.181300000000000     51.896900000000002
C      45.868099999999998     48.873200000000004     51.956500000000005
C      44.698800000000006     47.149500000000003     49.594200000000001
C      44.827700000000007     47.846899999999998     46.554900000000004
C      43.618600000000001     47.417900000000003     48.659300000000002
C      43.474400000000003     47.388700000000007     47.228700000000003
C      42.228700000000003     47.887300000000003     49.395799999999994
C      42.193100000000001     47.149700000000003     46.772199999999998
C      41.016700000000000     47.536200000000001     48.888199999999998
C      41.031599999999997     47.084899999999998     47.429400000000001
C      42.242900000000006     43.173900000000003     45.206599999999995
C      45.732799999999997     46.670099999999998     46.197400000000002
C      43.276399999999995     43.555700000000002     44.273200000000003
C      44.885900000000007     45.624000000000002     45.700599999999994
C      44.661199999999994     43.225800000000000     44.899199999999993
C      45.289800000000000     44.256400000000006     45.783500000000004
C      45.234800000000007     42.001200000000004     44.604799999999997
C      46.738699999999994     44.235999999999997     46.167400000000001
C      46.547300000000007     41.942000000000000     45.021299999999997
C      47.187700000000007     43.173499999999997     45.420400000000001
H      43.830200000000005     49.889100000000006     47.591700000000003
H      45.815100000000001     49.793200000000006     46.313000000000002
H      44.414699999999996     50.673999999999999     49.982399999999998
H      49.687799999999996     51.875000000000007     51.885300000000001
H      48.264300000000006     48.916200000000003     45.549999999999997
H      51.104699999999994     48.457100000000004     45.459000000000003
H      55.305400000000006     54.619500000000009     48.237099999999998
H      55.559899999999999     53.389200000000010     46.927599999999998
H      55.790000000000006     50.781799999999997     46.125299999999996
H      54.106499999999997     49.302700000000002     45.466700000000003
H      54.362899999999996     54.878300000000003     51.011099999999999
H      45.741699999999994     51.092900000000007     52.526900000000012
H      46.278900000000007     48.106100000000005     51.121099999999998
H      45.158000000000001     48.387400000000007     52.731799999999993
H      42.554299999999998     48.698399999999999     50.156400000000005
H      45.661500000000004     47.001899999999999     49.231099999999998
H      44.431100000000001     47.135800000000003     50.720900000000000
H      41.988900000000001     46.876300000000001     45.671800000000005
H      40.209999999999994     47.945100000000004     49.334100000000007
H      40.238100000000003     46.658099999999997     46.841400000000007
H      41.567200000000000     43.774400000000007     44.650199999999998
H      42.554500000000004     43.779699999999998     46.101900000000001
H      46.821299999999994     46.579700000000003     46.495300000000000
H      43.859399999999994     45.846800000000002     45.232200000000006
H      42.201800000000006     42.063099999999999     45.227000000000004
H      43.346999999999994     44.416100000000007     43.686400000000006
H      43.254700000000000     42.906100000000002     43.268200000000007
H      44.825800000000001     41.121699999999997     44.200800000000001
H      47.559600000000003     44.983899999999998     46.712299999999999
H      46.992699999999999     41.197099999999999     44.537899999999993
H      48.361800000000002     43.333000000000006     45.902400000000000
H      44.685699999999997     48.475800000000000     45.360500000000002
O      52.904600000000002     54.337800000000001     51.966099999999997
O      52.578500000000005     51.648100000000007     51.929500000000004
