91

C      48.256500000000003     44.346349999999987     46.572149999999993
C      50.784300000000002     43.688549999999999     46.853150000000007
C      49.236499999999992     43.984649999999995     45.366750000000003
C      50.358899999999991     43.294350000000001     45.755650000000003
C      49.068799999999996     44.189349999999997     43.988850000000006
C      50.786999999999992     42.291549999999994     44.967050000000000
C      49.717199999999991     43.376950000000001     43.029450000000004
C      50.451399999999992     42.265149999999998     43.525150000000004
C      46.292599999999993     50.291450000000005     47.859650000000002
C      45.760300000000001     48.927150000000005     47.586850000000005
C      49.740099999999998     47.847150000000006     51.076750000000004
C      48.569000000000003     46.990850000000002     50.869050000000009
C      47.295400000000001     50.687149999999995     48.791750000000000
C      46.949699999999993     47.965349999999994     47.650750000000009
C      48.520899999999997     49.761649999999996     50.700049999999997
C      47.753799999999998     46.983250000000005     49.744449999999993
C      47.736699999999999     49.521049999999995     49.496950000000005
C      47.667699999999996     48.212750000000007     48.915350000000004
C      45.440100000000001     51.152750000000005     47.018850000000008
C      43.991900000000001     50.664049999999996     46.620350000000002
C      43.378500000000003     49.408449999999995     46.945050000000002
C      44.419499999999999     48.510849999999998     47.320150000000005
C      51.035899999999998     47.159249999999993     51.121450000000003
C      50.911099999999990     45.811550000000004     51.228850000000016
C      49.898899999999998     44.951450000000001     51.751450000000013
C      48.891700000000000     45.990850000000002     51.970049999999993
C      45.789400000000001     52.583549999999995     47.062450000000005
C      45.102000000000004     53.565549999999995     46.248450000000005
C      43.908500000000004     52.957649999999994     45.882350000000002
C      43.175500000000000     51.746550000000006     46.194850000000002
C      47.344099999999997     52.135849999999998     48.979550000000003
C      46.655199999999994     53.039250000000003     48.112750000000005
C      47.239800000000002     46.871450000000003     46.711450000000006
C      48.182299999999998     45.838050000000003     47.052150000000005
C      43.683799999999991     47.248049999999999     47.643449999999994
C      49.534899999999993     49.276050000000005     51.495550000000009
C      53.504499999999993     47.858550000000001     51.229750000000010
C      52.301299999999998     47.766749999999995     51.872250000000015
C      50.033900000000003     43.453250000000004     51.934249999999999
C      52.181500000000000     47.608150000000002     53.429750000000006
C      48.379899999999992     46.163149999999995     53.050650000000005
C      42.598600000000005     47.236449999999998     48.789850000000008
C      43.652299999999997     45.189749999999997     50.237450000000017
C      43.585300000000004     47.532350000000001     50.086250000000000
C      44.020200000000003     46.279450000000004     50.779150000000008
C      43.992699999999999     48.862349999999999     50.318549999999995
C      44.947999999999993     46.465250000000005     51.706649999999989
C      45.296899999999994     48.863949999999996     50.930149999999998
C      45.658699999999996     47.760050000000000     51.659850000000006
H      47.346299999999999     43.688650000000003     46.428050000000006
H      48.474099999999993     43.547149999999995     47.435050000000011
H      50.348799999999997     44.647250000000007     47.087750000000000
H      51.915199999999999     43.784150000000004     46.928950000000007
H      48.324299999999994     44.983150000000002     43.675650000000005
H      51.634100000000004     41.735750000000003     45.279650000000004
H      49.564999999999998     43.600649999999995     42.019750000000002
H      50.840299999999999     41.332649999999994     42.933850000000000
H      42.415800000000004     48.821649999999998     46.774750000000004
H      45.183399999999992     54.667350000000006     46.221350000000001
H      43.108400000000003     53.705149999999996     45.551550000000006
H      47.069400000000002     54.041949999999993     48.048350000000006
H      50.441299999999998     49.859649999999995     51.833550000000010
H      47.974999999999994     52.277449999999995     49.950950000000013
H      46.284700000000001     46.620550000000001     46.296350000000004
H      48.859799999999993     46.257950000000001     47.845250000000000
H      44.415499999999994     46.946350000000002     48.360950000000010
H      43.220600000000005     46.437350000000002     46.955550000000002
H      46.628999999999991     45.506549999999997     48.833250000000000
H      48.805399999999992     50.910850000000003     50.998350000000002
H      54.488399999999999     48.002550000000006     51.431650000000012
H      53.706099999999992     47.467149999999997     50.017650000000010
H      49.698599999999999     42.810549999999999     52.656050000000000
H      41.511600000000001     52.331049999999998     45.897150000000003
H      51.599800000000002     44.023549999999993     50.305850000000000
H      52.837699999999998     46.727449999999997     53.693150000000010
H      52.524199999999993     48.668650000000007     53.980249999999998
H      51.042199999999994     47.134250000000002     53.512449999999994
H      47.328299999999999     45.593550000000000     53.134450000000008
H      48.575999999999993     47.037550000000003     53.905850000000001
H      41.683899999999994     46.257849999999998     48.840449999999997
H      41.909300000000002     48.092450000000007     48.346650000000004
H      43.183599999999998     45.203150000000001     49.299450000000000
H      44.005799999999994     44.160350000000001     50.379650000000005
H      43.506299999999996     49.666450000000005     49.643149999999999
H      45.483300000000000     45.533750000000005     51.960550000000005
H      45.867499999999993     49.705949999999994     50.638550000000002
H      46.581999999999994     47.817749999999997     52.016750000000002
O      50.822000000000003     42.760550000000002     51.358749999999993
O      41.826800000000006     51.533250000000002     46.346850000000003
O      51.674199999999999     45.225249999999996     50.257950000000015
O      47.254499999999993     45.758649999999996     49.460150000000006
