22

C      49.226449999999993     49.869895000000000     49.329349999999991
C      49.304049999999997     48.554995000000005     49.977250000000005
C      48.267749999999999     49.863295000000001     48.099349999999994
C      48.154249999999998     47.562555000000003     50.218049999999998
C      47.284050000000001     48.639795000000007     48.133249999999997
C      47.461449999999999     47.394685000000003     48.868649999999995
C      46.750149999999998     48.767695000000003     46.819250000000004
C      47.040849999999999     46.188695000000003     48.155149999999999
C      46.622749999999996     47.465435000000006     46.092549999999996
C      46.515250000000002     46.251915000000004     46.871150000000007
H      49.372349999999997     50.510894999999998     50.100249999999996
H      50.195750000000004     50.318995000000008     49.062649999999998
H      49.711750000000009     47.874395000000007     49.276249999999997
H      49.697249999999997     48.819995000000006     51.067550000000004
H      47.379049999999999     50.507495000000006     48.348350000000003
H      48.700449999999996     49.632395000000002     47.146449999999994
H      47.086250000000000     48.369995000000003     50.480550000000001
H      48.292450000000002     46.583215000000003     50.774449999999995
H      46.708950000000002     49.712095000000005     46.289549999999998
H      46.537549999999996     45.489105000000002     48.999050000000004
H      46.438549999999999     47.167845000000007     44.932449999999996
H      45.804249999999996     45.499695000000003     46.336450000000006
