6

C      47.412789999999987     48.627029999999991     48.167649999999995
C      48.665182999999999     48.049730000000011     47.977049999999998
H      46.865189999999991     48.491330000000005     49.083250000000000
H      46.810889999999993     48.418230000000008     47.181849999999997
H      49.189110000000007     47.874279999999999     46.916750000000000
H      48.910367999999998     47.372970000000009     48.838549999999998
