80

C      47.527599999999993     47.998099999999987     51.003249999999987
C      42.933900000000001     51.023399999999995     55.450149999999994
C      47.643800000000006     49.374699999999990     51.380049999999997
C      44.026500000000006     51.863299999999995     55.198049999999995
C      46.564500000000002     47.103099999999998     51.651049999999998
C      42.552700000000002     49.878799999999998     54.867649999999998
C      46.999900000000004     49.969899999999996     52.509049999999995
C      45.145299999999999     51.277999999999992     54.410649999999990
C      44.328800000000001     47.257599999999996     52.709349999999993
C      43.493900000000004     47.989999999999995     53.567349999999998
C      45.604900000000001     47.940599999999996     52.515149999999991
C      43.532100000000000     49.306099999999994     54.115249999999989
C      45.756000000000000     49.248899999999992     53.068249999999992
C      44.811500000000002     50.017499999999998     53.730349999999994
C      47.468399999999995     51.250999999999991     52.987649999999988
C      46.505900000000004     51.695300000000003     54.166349999999994
C      48.281300000000009     47.755099999999999     49.801349999999992
C      49.655899999999995     48.329300000000003     49.681449999999998
C      49.903600000000004     49.478600000000000     50.257149999999996
C      48.860400000000006     50.121599999999994     50.946149999999996
C      49.047599999999996     51.401299999999992     51.389749999999992
C      48.560200000000002     52.022299999999994     52.588249999999988
C      46.469500000000004     45.773799999999994     51.210649999999994
C      45.997999999999998     47.336299999999994     48.617649999999998
C      47.455500000000001     47.233999999999995     48.716549999999998
C      48.590800000000009     53.539500000000004     52.433549999999997
C      49.369000000000007     45.698200000000000     42.617849999999997
C      50.186399999999999     45.044899999999998     43.553649999999998
C      46.726300000000002     46.996599999999994     46.450249999999997
C      47.856900000000003     46.958999999999996     47.298349999999992
C      48.373200000000004     46.755299999999991     43.054049999999997
C      50.495500000000000     45.576499999999996     44.873649999999998
C      46.797199999999997     46.627499999999998     45.051449999999996
C      49.131300000000003     46.744199999999992     46.780049999999996
C      48.081600000000002     46.567099999999996     44.509549999999997
C      49.266200000000005     46.227699999999999     45.462149999999994
C      49.382500000000000     45.003999999999991     41.276149999999994
C      50.151599999999995     43.739499999999992     40.860749999999996
C      50.917800000000007     43.234899999999996     41.915849999999992
C      51.080400000000004     43.904499999999999     43.158649999999994
C      47.679499999999997     47.201399999999992     42.017349999999993
C      48.744500000000002     45.818899999999999     40.332249999999995
C      48.427399999999999     47.284299999999995     40.667449999999995
C      51.690900000000006     45.432099999999991     45.606849999999994
C      52.526099999999992     44.471599999999995     45.199349999999995
C      52.315100000000008     43.912599999999998     43.903249999999993
C      53.373200000000004     42.939799999999991     43.272449999999992
C      45.576500000000003     47.177999999999997     47.341449999999995
H      49.394100000000002     48.821500000000000     41.096549999999993
H      42.070700000000002     51.239899999999992     56.288549999999994
H      41.656300000000002     49.467900000000000     55.516749999999995
H      44.103900000000003     46.136799999999994     52.320949999999996
H      50.377299999999998     47.819299999999998     49.198549999999997
H      50.906699999999994     49.890099999999990     50.141149999999996
H      49.777499999999996     52.130399999999995     50.991649999999993
H      47.471299999999999     45.053500000000000     51.080449999999985
H      45.514099999999999     45.318299999999994     51.060549999999992
H      45.321599999999997     47.306799999999996     49.583649999999999
H      41.695000000000000     46.022199999999998     53.712750000000000
H      43.380500000000005     52.835999999999999     56.594650000000001
H      48.549900000000001     53.929999999999993     51.303849999999997
H      49.713500000000003     53.995300000000000     52.531549999999996
H      47.670000000000009     53.724799999999988     53.017649999999996
H      44.545000000000002     47.079599999999999     47.109249999999996
H      50.036099999999998     46.861599999999996     47.188949999999998
H      51.737599999999993     42.538799999999995     41.515849999999993
H      47.763399999999997     47.589699999999993     39.839149999999997
H      48.838100000000004     45.328499999999991     39.405349999999999
H      53.513799999999996     44.417699999999996     45.851749999999996
H      51.805000000000000     45.881499999999996     46.683249999999994
H      46.789600000000000     47.757499999999993     41.731649999999995
H      53.944600000000001     42.789099999999991     44.374249999999996
H      52.837200000000003     42.004700000000000     43.177449999999993
H      54.343699999999998     43.502899999999997     42.989349999999995
H      46.005000000000003     46.597499999999997     44.215049999999998
O      49.539700000000003     48.020099999999999     40.512549999999997
O      46.853800000000000     52.792099999999991     54.498750000000001
O      44.250399999999999     53.009599999999992     55.936849999999993
O      50.305799999999998     43.654599999999995     39.658549999999998
S      41.855700000000006     47.343999999999994     54.118549999999999
