6

C      48.771400000000000     47.738599999999998     48.284049999999993
C      47.504900000000006     48.182299999999998     47.991149999999998
H      49.199700000000007     46.799599999999998     47.815949999999994
H      49.275300000000001     48.643699999999995     48.601750000000003
H      46.724699999999999     47.631299999999996     47.392050000000005
H      47.173699999999997     49.200400000000002     48.607949999999995
