22

C      45.572449999999996     47.795349999999992     47.263299999999994
C      45.974450000000004     46.791650000000004     48.193799999999996
C      46.523550000000007     48.981949999999998     47.466300000000004
C      47.331150000000001     46.746949999999998     48.915099999999995
C      47.939750000000004     48.496049999999997     47.242500000000007
C      48.410350000000008     47.389650000000003     48.046900000000008
C      48.806050000000013     49.382549999999995     46.549199999999999
C      49.389950000000006     46.756349999999998     47.276399999999995
C      50.309550000000002     48.976349999999996     46.603200000000001
C      50.455050000000014     47.588149999999999     46.907700000000006
H      51.221850000000003     49.550349999999995     46.863000000000000
H      44.542950000000005     48.179950000000005     47.561700000000002
H      45.536350000000006     47.857849999999999     46.111999999999995
H      46.144149999999996     46.140249999999995     47.358500000000006
H      45.091150000000006     46.665049999999994     49.264099999999999
H      46.016850000000005     49.799250000000001     46.784599999999998
H      46.118050000000011     49.160650000000004     48.537400000000005
H      47.415950000000002     47.506850000000000     49.888000000000005
H      47.558750000000003     45.684349999999995     49.251599999999996
H      48.215649999999997     50.315650000000005     46.200400000000002
H      49.780050000000003     45.749650000000003     47.340000000000003
H      51.457049999999995     47.003050000000002     46.593900000000005
