22

C      49.268549999999991     50.769299999999994     48.176749999999991
C      45.684850000000004     46.943500000000000     47.339150000000004
C      48.682350000000007     49.843900000000005     47.469049999999996
C      46.989950000000000     47.755700000000004     47.237549999999999
C      49.065050000000006     48.194699999999997     47.625349999999997
C      48.229850000000006     47.085700000000003     47.665750000000003
C      50.318350000000002     47.739900000000006     48.183750000000003
C      48.506850000000007     45.768700000000003     48.027749999999997
C      50.446350000000002     46.530799999999999     48.952250000000006
C      49.720050000000008     45.414800000000000     48.568449999999999
H      49.120350000000009     51.794200000000004     48.095450000000000
H      50.118350000000000     50.542000000000002     48.942850000000000
H      44.872750000000003     47.649299999999997     47.800049999999999
H      45.746249999999996     46.100200000000001     48.281750000000002
H      47.774149999999999     50.258899999999997     46.882750000000001
H      47.060449999999996     48.147999999999996     46.271450000000002
H      45.443649999999998     46.445700000000002     46.432549999999999
H      51.127249999999997     48.469900000000003     48.906549999999996
H      47.778349999999996     45.070399999999999     47.853450000000002
H      51.047649999999997     46.434200000000004     49.728549999999998
H      49.776350000000001     44.205799999999996     48.908650000000009
H      46.851149999999997     48.726600000000005     48.048450000000003
