16

C      47.371549999999992     49.357099999999988     49.583979999999997
C      47.452550000000002     46.940299999999993     49.570180000000001
C      47.784750000000003     48.971699999999998     48.499780000000001
C      47.559449999999998     47.572999999999993     48.314880000000002
C      48.638850000000005     49.763399999999990     47.596589999999999
C      47.213749999999997     47.265000000000001     46.842810000000000
C      48.694449999999989     49.283000000000001     46.330810000000007
C      47.620150000000002     48.199699999999993     45.835580000000000
H      46.529649999999997     48.855399999999989     50.210580000000000
H      47.847949999999997     50.229699999999994     50.146980000000006
H      46.826949999999997     45.769700000000000     49.574080000000002
H      47.663750000000000     47.456899999999990     50.767879999999998
H      49.573250000000002     50.230300000000000     47.913339999999998
H      46.426749999999998     46.696799999999996     46.456340000000004
H      49.205449999999999     49.751499999999993     45.477670000000003
H      46.679049999999997     48.063899999999990     45.232120000000002
