44

C      48.441949999999991     47.546099999999996     45.617350000000002
C      49.254450000000006     46.413800000000002     45.724350000000001
C      47.082049999999995     47.844100000000005     50.236249999999998
C      47.137650000000008     46.386400000000002     50.166150000000002
C      48.071550000000002     48.374400000000001     46.820849999999993
C      49.178349999999995     45.795800000000000     47.082549999999998
C      47.395350000000008     48.545000000000009     49.098550000000003
C      47.730149999999995     45.584800000000001     49.165050000000008
C      48.143749999999997     47.756200000000000     48.093449999999990
C      48.275149999999996     46.204700000000003     48.066150000000007
C      48.269850000000005     48.207500000000003     44.315950000000001
C      48.914550000000006     47.526600000000002     43.186250000000001
C      49.119550000000004     46.136200000000002     43.199250000000006
C      49.674149999999997     45.741400000000006     44.512850000000000
C      46.685150000000007     48.493299999999998     51.533749999999998
C      46.688050000000004     47.864399999999996     52.783450000000002
C      46.534450000000007     46.387900000000002     52.629950000000008
C      46.648650000000004     45.730899999999998     51.392650000000003
C      47.872749999999996     49.601800000000004     44.328650000000010
C      47.954549999999998     50.467400000000005     43.220250000000007
C      48.546250000000001     49.869700000000002     42.085949999999997
C      48.837150000000008     48.477100000000000     42.110150000000004
C      48.188749999999999     49.858200000000004     46.529550000000000
C      47.306049999999999     50.569000000000010     45.375450000000001
C      46.432550000000006     45.575600000000001     53.893149999999991
C      49.299550000000011     50.492399999999996     47.044150000000002
H      49.769750000000002     44.849100000000000     47.060949999999991
H      48.200649999999996     44.651500000000006     49.275049999999993
H      49.251249999999999     45.724600000000002     42.209950000000006
H      50.069050000000004     44.678400000000003     44.669049999999999
H      46.465450000000004     49.678900000000006     51.613550000000004
H      46.450450000000004     48.274700000000003     53.703049999999990
H      46.256650000000008     44.751500000000000     51.226250000000007
H      47.705950000000001     51.556199999999997     43.435450000000003
H      48.621250000000003     50.349499999999999     41.246750000000006
H      49.123149999999995     48.045200000000001     41.120450000000005
H      46.369749999999996     49.897500000000001     45.987250000000003
H      47.694950000000006     51.515300000000003     45.607849999999999
H      46.850850000000008     44.443800000000003     53.998549999999994
H      49.896450000000002     50.223300000000002     47.992850000000004
H      49.391549999999995     51.522200000000005     46.989550000000008
H      47.065449999999998     50.265999999999998     49.561050000000009
O      45.930949999999996     46.083199999999998     54.879549999999995
O      47.177050000000008     49.842900000000000     48.722749999999991
