39

C      48.171079999999989     49.164400000000001     47.031349999999989
C      47.158079999999991     48.157399999999996     46.740449999999996
C      50.029080000000000     45.851399999999998     50.077650000000006
C      48.494579999999992     45.367400000000004     50.433949999999996
C      49.397079999999995     48.767899999999997     47.726749999999996
C      46.876979999999996     47.224199999999996     47.722650000000002
C      50.324379999999998     46.939000000000007     49.212050000000005
C      47.366779999999999     46.047800000000009     49.879949999999994
C      49.160779999999995     47.656199999999998     48.698549999999997
C      47.790479999999995     47.145700000000005     48.959750000000000
C      48.027780000000000     50.449200000000005     46.389849999999996
C      47.154279999999993     50.466200000000001     45.196250000000006
C      45.812880000000000     49.771999999999991     45.326049999999995
C      45.920079999999992     48.555900000000008     46.129649999999998
C      51.080779999999997     45.608000000000004     51.089849999999998
C      51.074679999999994     44.399200000000008     51.763350000000003
C      49.954479999999997     43.673299999999998     51.280450000000002
C      48.661879999999989     44.061599999999999     50.987549999999999
C      49.154779999999995     51.361300000000000     46.552450000000007
C      49.095679999999994     52.546800000000005     45.808449999999993
C      48.237379999999995     52.574600000000004     44.696950000000001
C      47.457879999999996     51.460799999999992     44.172650000000004
C      50.400579999999998     51.244999999999990     47.188649999999996
C      50.367579999999997     49.854600000000005     47.564949999999996
C      44.761979999999987     47.629700000000000     46.250150000000005
H      46.292479999999991     46.390600000000006     47.622550000000004
H      51.373779999999989     47.209800000000001     49.212450000000004
H      46.417379999999987     45.755499999999998     50.215550000000007
H      51.889975300000003     46.337100000000007     51.146249999999995
H      51.992220000000010     44.115800000000007     52.497749999999996
H      50.103679999999990     42.483100000000007     51.464650000000006
H      47.690779999999997     43.667800000000000     51.102549999999994
H      49.759679999999996     53.516899999999993     46.024050000000003
H      47.921279999999989     53.515900000000002     44.184349999999995
H      46.679779999999987     51.630899999999997     43.502250000000004
H      51.465679999999999     49.911200000000008     47.615250000000003
H      51.247079999999990     51.901800000000009     47.166349999999994
H      45.067079999999997     50.448999999999998     45.074050000000000
O      44.007779999999990     46.759100000000004     46.504850000000005
