36

C      46.444099999999992     47.145669999999996     48.412299999999988
C      45.084800000000001     45.635679999999994     50.968500000000006
C      46.980500000000006     45.908810000000003     48.954300000000003
C      46.311500000000009     45.293149999999997     50.038200000000003
C      48.437799999999996     45.639340000000004     48.789400000000001
C      46.856700000000004     44.284319999999994     50.867600000000010
C      48.811099999999996     44.308740000000000     49.135199999999998
C      47.874700000000004     43.658569999999997     49.958300000000008
C      47.046999999999997     47.267340000000004     46.816599999999994
C      47.654900000000012     52.509889999999999     45.907700000000006
C      48.048000000000002     47.819199999999995     46.243399999999994
C      48.733900000000006     52.449489999999997     45.283400000000000
C      49.111999999999995     48.711389999999994     45.864100000000008
C      49.200100000000006     51.141689999999997     45.429400000000001
C      50.053600000000003     48.380889999999994     44.926900000000003
C      48.385500000000008     50.071889999999996     46.007000000000005
C      50.783900000000003     49.612589999999997     44.638300000000001
C      50.437300000000008     50.922190000000001     44.751400000000004
H      44.333100000000002     46.076960000000000     50.341800000000006
H      46.667600000000007     48.088769999999997     49.027100000000004
H      45.309899999999999     47.195869999999999     48.739199999999997
H      44.328699999999998     44.888339999999999     51.381900000000002
H      45.369700000000009     46.142920000000004     51.930800000000005
H      49.161500000000004     46.023859999999999     48.093500000000006
H      46.349400000000003     43.923010000000005     51.888800000000003
H      49.684600000000003     43.771879999999996     48.794399999999996
H      48.066599999999994     42.745210000000000     50.544300000000007
H      46.031599999999997     46.641419999999997     46.721900000000005
H      47.369500000000002     52.216489999999993     46.917800000000000
H      49.456199999999995     53.254790000000000     44.759100000000004
H      47.330799999999996     50.159589999999994     45.250100000000003
H      46.808500000000009     53.151289999999989     45.478899999999996
H      50.661000000000001     47.373300000000000     44.865700000000004
H      47.953199999999995     50.135989999999993     47.085599999999999
H      51.671300000000002     49.526089999999996     44.069199999999995
H      51.156300000000002     51.745189999999994     44.452399999999997
