55

C      47.698999999999984     43.300550000000001     49.044049999999984
C      48.648629999999997     48.643649999999994     49.456049999999998
C      47.788430000000005     44.157550000000001     50.193549999999995
C      48.223910000000004     47.510649999999998     49.560049999999997
C      47.229759999999999     45.536349999999999     50.795249999999989
C      47.267139999999998     46.960449999999994     50.542349999999992
C      46.376660000000001     45.118150000000000     51.819849999999995
C      46.181027999999998     47.317749999999990     51.409849999999999
C      45.469721999999990     46.273449999999997     51.999549999999992
C      46.027485999999996     48.759550000000004     52.021349999999991
C      47.698329999999999     52.366849999999999     43.710749999999997
C      46.474049999999991     49.519750000000002     44.021949999999997
C      48.215490000000003     51.031149999999997     43.119349999999990
C      47.738140000000001     49.714050000000000     43.135649999999991
C      49.662869999999998     50.981849999999994     43.150349999999996
C      48.484349999999992     48.409949999999995     43.115349999999999
C      50.476430000000008     49.885949999999994     42.786349999999992
C      49.916210000000007     48.614050000000006     43.208250000000000
C      49.080299999999994     49.907349999999994     46.037549999999989
C      47.657380000000003     49.852050000000006     49.138549999999988
C      47.677089999999993     50.141049999999993     46.380249999999997
C      46.960939999999994     50.041849999999997     47.679749999999991
C      46.676779999999994     50.054749999999999     45.406349999999996
C      45.692392999999996     50.017550000000000     47.510550000000002
C      45.271249900000001     50.240250000000003     46.030149999999999
C      49.605319999999992     48.551149999999993     46.194049999999997
H      46.855300000000000     43.379549999999995     48.484449999999988
H      48.490579999999994     42.747650000000007     48.542749999999991
H      45.249940100000003     49.688449999999989     51.691949999999999
H      49.628169999999997     48.621750000000006     49.032350000000001
H      48.771400000000000     43.753349999999998     50.441949999999999
H      48.419560000000004     46.770250000000004     48.754649999999991
H      46.201003000000000     43.920050000000003     51.948249999999994
H      45.873525999999998     48.777949999999990     53.214649999999999
H      44.524549999999991     46.559150000000002     52.390349999999991
H      47.010210000000001     49.001549999999995     52.273350000000001
H      46.723289999999992     52.543750000000003     43.916449999999990
H      48.396090000000001     52.169849999999997     44.615850000000002
H      45.665538999999995     50.041250000000005     43.668349999999997
H      46.322569999999999     48.397750000000002     43.988949999999996
H      50.192369999999997     51.911349999999999     43.103649999999995
H      48.019410000000008     47.589749999999995     43.499649999999995
H      51.600450000000009     49.816350000000000     42.785350000000001
H      50.623199999999997     47.751050000000006     43.417749999999991
H      49.164520000000010     48.023749999999993     47.077149999999996
H      48.479469999999992     53.252349999999993     43.504849999999998
H      49.502830000000003     50.628950000000003     46.709949999999999
H      49.024479999999997     50.282250000000005     44.997650000000000
H      48.377980000000008     50.738950000000003     49.053449999999991
H      46.689259999999990     49.923549999999992     49.797549999999994
H      44.399549999999991     49.619550000000004     45.709849999999996
H      44.870950000000022     49.918850000000006     48.222049999999989
H      44.922250000000020     51.293149999999997     45.697249999999990
H      49.457009999999997     48.073750000000004     45.202549999999995
H      50.665720000000007     48.376549999999995     46.482349999999990
