57

C      49.535150000000002     48.016399999999990     47.354469999999992
C      48.760450000000006     48.930399999999999     48.177239999999998
C      44.131749999999997     49.248899999999999     46.346649999999997
C      49.227150000000009     47.778900000000000     45.984600000000000
C      47.468649999999997     49.399200000000000     47.653459999999995
C      43.467250000000007     48.165399999999998     46.691040000000001
C      45.652349999999998     49.077499999999993     45.710470000000001
C      47.941950000000006     48.283999999999999     45.484709999999993
C      47.005350000000007     48.901800000000001     46.279169999999993
C      50.892550000000000     47.796100000000003     47.905560000000008
C      51.110550000000003     47.996499999999997     49.257050000000007
C      50.392949999999999     49.170999999999999     49.800049999999999
C      49.104250000000008     49.727299999999993     49.298450000000003
C      51.852850000000004     47.280799999999999     46.916510000000002
C      52.960049999999995     46.551600000000001     47.547079999999994
C      53.293650000000000     46.586599999999997     48.960250000000002
C      52.486050000000006     47.558100000000003     49.655649999999994
C      50.123649999999998     47.165900000000001     44.963719999999995
C      51.832250000000002     47.494300000000003     45.483019999999996
C      46.590549999999993     50.303999999999995     48.187659999999994
C      46.831350000000000     50.751199999999997     49.601950000000002
C      48.332850000000008     50.801700000000004     49.996750000000006
C      54.101650000000006     45.835300000000004     46.895039999999995
C      42.518950000000004     47.355600000000003     47.167450000000002
C      41.487150000000000     45.138100000000001     48.883560000000003
C      41.730450000000005     47.734900000000003     48.369420000000005
C      41.542150000000007     46.524200000000000     49.264850000000010
C      41.827050000000000     49.122300000000003     48.695650000000001
C      41.677250000000001     46.758899999999997     50.672550000000001
C      41.798249999999996     49.139199999999995     50.102450000000005
C      41.706550000000007     48.166100000000000     51.087350000000001
H      44.119550000000004     50.120199999999990     46.943330000000003
H      47.708449999999999     47.662100000000002     44.414919999999995
H      45.809650000000005     49.233300000000000     44.617329999999995
H      50.669849999999997     49.553899999999992     50.888549999999995
H      53.223849999999999     47.731499999999997     50.613050000000001
H      52.425950000000000     46.736699999999999     45.103690000000000
H      50.012850000000000     46.098799999999997     45.067470000000000
H      52.100449999999995     48.570700000000002     45.438839999999999
H      53.571950000000001     45.035400000000003     46.089600000000004
H      45.732050000000001     50.915199999999992     47.709160000000011
H      46.113849999999999     51.525100000000002     50.065049999999999
H      46.222049999999996     49.776299999999999     50.138750000000002
H      48.802850000000007     51.744300000000003     49.787450000000007
H      48.589650000000006     50.299399999999999     51.032749999999993
H      55.005849999999995     45.826500000000003     49.373549999999994
H      50.249650000000003     47.610199999999999     43.895849999999996
H      54.950150000000008     45.439399999999999     47.512930000000011
H      54.905650000000009     46.762700000000002     46.511839999999992
H      41.941950000000006     46.386099999999999     46.754379999999998
H      40.994150000000005     44.871499999999997     47.894110000000012
H      41.253150000000005     44.255699999999997     49.485750000000010
H      42.292150000000007     49.944299999999991     47.998689999999996
H      41.340050000000005     46.226900000000001     51.614450000000005
H      41.780450000000002     50.114500000000000     50.845750000000010
H      41.919449999999998     48.260699999999993     52.104150000000004
O      54.132050000000007     45.768300000000004     49.660950000000000
