18

C      49.542349999999992     49.337249999999990     47.954799999999992
C      47.057450000000003     49.886350000000000     49.305799999999998
C      48.340150000000001     48.579149999999998     47.422000000000004
C      47.256450000000001     48.763549999999995     48.294499999999999
C      48.414950000000005     47.245849999999997     46.823399999999999
C      46.300249999999998     47.850649999999995     48.565500000000000
C      47.313050000000004     46.349950000000000     46.876700000000000
C      46.474850000000004     46.584150000000001     48.014499999999998
H      50.528149999999997     48.835650000000001     47.807899999999997
H      50.026650000000004     50.119150000000005     47.038499999999999
H      46.323450000000001     50.723950000000002     48.965100000000000
H      46.613050000000001     49.269749999999995     50.103400000000001
H      49.174149999999997     47.185049999999997     45.896599999999999
H      45.471850000000003     47.889449999999997     49.211199999999998
H      47.208349999999996     45.276049999999998     46.680199999999999
H      45.945549999999997     45.755549999999999     48.547999999999995
H      47.891750000000002     50.548050000000003     49.275600000000004
H      49.290649999999999     49.946549999999995     48.882200000000005
