80

C      47.052399999999992     49.465399999999995     46.782249999999998
C      45.866999999999997     49.806899999999999     45.973950000000002
C      40.405899999999995     46.242600000000003     45.097149999999999
C      47.314199999999992     48.055100000000003     47.124049999999997
C      40.703699999999998     44.966799999999999     45.793250000000000
C      44.811900000000001     48.985900000000001     45.714349999999996
C      41.473099999999995     47.105100000000000     45.510949999999994
C      42.553899999999999     44.340199999999996     47.483649999999997
C      43.889599999999994     44.612300000000005     47.844149999999999
C      45.958300000000001     45.967799999999997     47.744550000000004
C      41.984000000000002     45.107500000000002     46.321349999999995
C      46.194499999999998     47.247700000000002     47.179050000000004
C      44.725199999999994     45.565100000000001     47.102050000000006
C      42.586899999999993     46.457999999999998     46.069550000000007
C      44.844499999999996     47.789400000000001     46.636250000000004
C      44.031799999999997     46.640000000000001     46.591650000000001
C      48.248199999999990     50.252799999999993     46.599350000000001
C      48.149299999999990     51.342100000000002     45.765850000000000
C      47.022399999999998     51.565899999999999     44.923150000000007
C      45.690899999999999     51.163399999999996     45.317449999999994
C      41.755199999999995     43.341000000000001     48.156949999999995
C      42.214700000000001     42.813299999999998     49.308750000000003
C      43.473799999999997     43.240800000000000     49.794250000000005
C      44.461700000000000     43.844799999999999     48.904949999999999
C      40.287900000000000     43.167200000000001     47.676649999999995
C      40.044799999999995     43.674700000000001     46.178650000000005
C      48.588699999999996     47.716400000000000     47.876950000000008
C      49.278199999999991     46.799100000000003     47.473550000000003
C      49.325600000000001     50.132900000000006     47.599249999999998
C      44.499299999999998     52.056899999999999     45.067250000000001
C      44.374099999999999     53.415899999999993     44.500850000000000
C      44.131299999999996     42.586300000000001     50.861149999999995
C      45.351399999999998     42.790599999999998     51.870950000000008
C      48.392699999999998     47.445700000000002     49.278350000000003
C      55.850500000000004     53.269700000000000     49.428449999999998
C      55.430999999999990     52.616399999999999     50.772949999999994
C      54.073900000000002     52.202800000000003     50.827749999999995
C      55.542899999999996     52.307599999999994     48.209649999999996
C      53.593299999999992     51.431500000000000     49.604250000000008
C      54.337700000000005     51.377200000000002     48.355649999999997
C      52.225199999999994     50.974699999999999     49.708449999999999
C      53.105399999999996     51.173599999999993     47.592050000000000
C      50.598000000000006     50.876100000000001     47.698049999999995
C      52.024800000000006     50.988000000000000     48.348950000000002
H      39.014199999999995     43.607199999999999     45.856650000000002
H      46.869599999999998     52.537199999999999     44.467849999999999
H      55.809300000000000     54.385700000000000     49.208650000000006
H      56.985800000000005     53.808500000000009     49.308549999999997
H      56.018299999999996     52.545400000000001     51.689250000000001
H      53.777399999999993     51.683100000000010     51.764550000000000
H      56.353400000000001     51.739600000000010     47.809749999999994
H      55.438099999999999     52.955600000000004     47.117050000000006
H      51.467300000000002     50.790599999999998     50.425349999999995
H      50.808399999999999     51.832399999999993     47.227750000000000
H      53.086700000000000     51.264699999999991     46.439650000000000
H      39.408099999999997     46.360599999999998     44.770849999999996
H      41.530899999999995     48.158400000000000     45.241450000000000
H      46.584299999999999     45.211399999999998     48.280349999999999
H      49.091000000000001     51.853299999999997     45.728549999999998
H      45.546699999999994     43.860299999999995     49.235250000000008
H      39.530299999999997     43.570300000000003     48.126750000000001
H      40.072399999999995     42.057299999999998     47.787149999999997
H      40.430599999999998     42.833799999999997     45.564350000000005
H      48.988999999999997     46.511800000000001     46.475049999999996
H      49.298899999999996     45.860199999999999     48.202650000000006
H      49.264400000000002     49.324100000000001     48.283450000000002
H      43.237099999999998     53.602800000000002     44.451650000000001
H      44.877499999999998     53.641800000000003     43.331450000000004
H      44.895199999999996     54.277299999999997     45.234150000000000
H      45.261000000000003     41.677900000000001     52.188749999999999
H      46.211099999999995     42.943100000000001     51.140050000000002
H      44.632100000000001     49.611500000000007     43.779150000000001
H      40.481400000000001     41.872199999999999     50.340550000000007
H      47.539999999999999     47.844400000000000     49.793350000000004
H      48.585799999999999     46.480100000000000     49.328950000000006
H      44.767999999999994     43.334000000000003     52.668549999999996
O      43.376799999999996     51.594700000000003     45.181550000000001
O      43.560299999999998     41.614300000000000     51.328149999999994
O      44.190300000000001     48.995500000000000     44.516750000000002
O      41.331399999999995     41.903400000000005     49.840850000000003
