54

C      48.976464999999990     49.013249999999992     48.170760999999985
C      46.340114999999997     43.130949999999999     49.783745000000010
C      49.931105000000002     48.029350000000001     48.498184999999992
C      47.878964999999994     43.185949999999998     49.958275000000000
C      47.700055000000006     48.585549999999998     47.432415000000020
C      45.913335000000004     43.957650000000001     48.679625000000001
C      49.840405000000004     46.610149999999997     48.600214999999992
C      48.654084999999995     44.445349999999998     49.727215000000001
C      47.264724999999999     47.181350000000002     47.755796000000004
C      46.668774999999997     45.180450000000000     48.354564000000011
C      48.520674999999997     46.451349999999998     48.065967000000001
C      48.059354999999996     45.153449999999999     48.694865000000007
C      50.636904999999999     46.036450000000002     49.875235000000004
C      49.909604999999999     44.864449999999998     50.296535000000006
C      49.057564999999997     50.473350000000011     48.393315999999999
C      50.155705000000012     51.131249999999994     49.163825000000003
C      51.120105000000009     50.027650000000008     49.441725000000005
C      51.088305000000005     48.601250000000000     49.272835000000001
C      52.283005000000003     47.895249999999997     50.127375000000001
C      51.773205000000004     46.470250000000000     50.585295000000002
C      46.967735000000005     49.864350000000002     47.329215000000005
C      47.911074999999997     50.983750000000001     47.747894000000002
C      50.504604999999998     44.093249999999998     51.381815000000003
C      52.450704999999999     45.776150000000001     51.742654999999999
C      45.743285000000000     49.985150000000004     46.664614999999998
C      47.664135000000002     51.264049999999997     44.173014999999992
C      45.659205000000000     51.167650000000002     45.854115000000021
C      46.237134999999995     51.832449999999994     44.736315000000019
C      44.252634999999998     51.423550000000006     46.174014999999997
C      45.833564999999993     52.965449999999997     44.246515000000031
C      43.687004999999999     52.491249999999994     45.570715000000007
C      44.350385000000003     53.144949999999994     44.408815000000004
H      51.998904999999993     50.190650000000005     49.937924999999993
H      52.195404999999994     48.622650000000000     51.143185000000003
H      53.274505000000005     48.109650000000002     49.740485000000007
H      47.651814999999999     52.212549999999993     47.505845699999995
H      50.093705000000000     43.224650000000004     51.660065000000003
H      44.290265000000005     44.090249999999997     47.797023999999993
H      52.538605000000004     46.245350000000002     52.846284999999995
H      53.384905000000003     45.533850000000001     51.357115000000007
H      50.372705000000011     52.133750000000006     49.292435000000012
H      48.623734999999996     51.709550000000000     44.318214999999981
H      45.060104999999993     49.182350000000000     46.419015000000016
H      47.910454999999999     50.233150000000009     44.325815000000020
H      47.500114999999994     51.236350000000002     43.153715000000005
H      43.662274999999994     50.435149999999993     46.721815000000021
H      46.383724999999998     53.551850000000002     43.509915000000007
H      42.615094999999997     52.544350000000001     45.893915000000021
H      43.757485000000003     53.880650000000003     43.679114999999996
N      46.256204999999994     46.367849999999997     47.745963000000003
O      51.573205000000002     44.375550000000004     51.933575000000005
O      48.325055000000006     42.119349999999997     50.158554999999993
O      44.962204999999997     43.425249999999998     47.827584000000002
O      45.465035000000000     43.013050000000000     50.610174999999998
