58

C      50.289539999999988     45.201499999999996     45.240899999999989
C      45.432721999999998     52.854199999999999     50.387500000000003
C      49.049849999999992     45.844100000000005     44.999799999999993
C      44.903239999999997     52.209899999999998     49.244299999999996
C      51.554009999999991     46.053099999999993     45.458700000000007
C      46.756149999999991     52.504100000000001     50.579700000000003
C      48.865569999999991     47.079100000000004     45.572400000000002
C      45.445445999999990     51.205100000000009     48.361000000000004
C      52.389519999999990     48.521999999999998     45.843100000000007
C      52.458770000000001     49.454600000000006     46.822299999999998
C      50.636970000000005     50.732400000000005     48.212599999999995
C      48.406099999999995     49.454200000000000     47.013900000000007
C      51.328000000000003     47.340400000000002     45.791700000000006
C      47.636159999999990     51.792000000000009     49.691500000000005
C      50.947239999999994     49.771999999999998     47.229100000000003
C      49.315879999999993     50.947700000000005     48.727199999999996
C      49.961069999999992     47.878399999999999     45.870800000000003
C      46.948470000000000     51.122300000000003     48.555999999999997
C      49.861539999999991     49.127200000000009     46.734300000000005
C      48.116379999999992     50.320599999999992     48.041799999999995
C      47.616919999999993     47.919600000000003     45.491399999999999
C      47.248939999999990     49.045399999999994     46.147400000000005
C      50.406469999999999     43.827700000000000     44.928300000000007
C      49.290059999999997     43.322500000000005     44.094200000000001
C      48.054090000000002     43.771700000000003     44.039100000000005
C      47.955479999999994     45.238400000000006     44.358999999999995
C      46.824150000000003     46.001100000000001     43.914400000000001
C      46.631509999999992     47.318000000000005     44.497500000000002
C      52.716629999999995     45.265899999999995     45.797399999999996
C      52.699420000000003     43.864100000000001     45.704499999999996
C      51.643760000000000     43.116700000000002     45.269800000000004
C      47.300020000000004     53.063899999999997     51.886799999999994
C      44.569339999999997     50.212700000000005     47.841400000000007
C      43.323840000000004     53.409199999999991     48.058099999999996
C      43.402439999999999     52.643799999999992     49.184600000000003
C      51.627270000000010     51.725800000000000     48.992699999999999
H      45.050534700000000     53.699200000000012     50.901499999999999
H      53.190120000000007     48.166900000000005     45.115700000000004
H      53.123860000000008     50.494099999999996     46.849000000000004
H      46.236089999999990     49.572700000000005     46.190700000000007
H      49.538010000000000     42.190700000000000     43.826800000000006
H      47.323290000000000     43.319800000000001     43.322800000000001
H      46.042919999999995     45.462100000000000     43.311700000000002
H      45.963106999999994     48.087600000000002     43.984800000000007
H      53.587859999999992     45.852899999999998     45.729399999999998
H      51.808840000000004     42.109800000000000     45.126999999999995
H      46.679040000000001     53.357100000000003     52.688299999999998
H      42.412140000000008     53.890200000000000     47.741600000000005
H      44.122840000000011     53.734700000000004     47.418999999999997
H      42.768539999999987     52.043700000000008     49.792699999999996
H      45.001878599999998     49.131200000000000     47.796800000000005
H      50.968940000000003     52.679400000000008     49.052999999999997
H      51.881619999999998     51.283999999999999     49.956699999999998
H      52.561470000000000     52.003500000000003     48.637000000000000
H      53.394239999999996     43.442800000000005     46.222499999999997
N      48.950609999999998     51.627200000000002     49.733400000000003
O      48.497749999999996     52.876800000000003     52.175799999999995
O      43.352640000000008     50.103400000000001     47.758799999999994
