18

C      48.372449999999994     50.666749999999993     48.581738999999985
C      49.755150000000000     46.596650000000004     49.108934999999995
C      48.556849999999997     48.592550000000003     48.009180409999992
C      48.862750000000005     47.206550000000000     48.194737999999994
C      47.965550000000000     49.691250000000004     47.897984999999970
C      48.149950000000004     46.326050000000002     47.176385000000018
C      46.951350000000005     49.938250000000004     47.043184999999987
C      47.859650000000002     45.178550000000001     47.840684999999986
H      47.520250000000004     44.415649999999999     47.034585000000000
H      46.690650000000005     51.073050000000002     47.075284999999987
H      45.781149999999997     49.755549999999999     47.334585000000004
H      49.127449999999996     50.779350000000001     49.252644999999994
H      49.721249999999998     45.703650000000003     49.602544999999992
H      50.218850000000003     46.957349999999998     50.094014999999992
H      47.842950000000002     46.349950000000000     46.157384999999998
H      47.743749999999999     51.584350000000001     48.326351999999993
H      48.470749999999995     44.708950000000002     48.980394999999994
H      47.245149999999995     49.715650000000004     45.905985000000008
