6

C      48.178549999999994     47.642749999999999     47.466199999999994
C      47.851550000000003     48.559950000000001     48.313999999999993
H      49.027550000000005     46.963750000000005     47.658699999999996
H      47.662949999999995     47.129150000000003     46.645899999999997
H      46.972449999999995     49.036249999999995     47.953099999999992
H      48.156149999999997     48.762250000000009     49.354100000000003
