20

C      46.319439999999993     46.533099999999990     47.869849999999985
C      49.699550000000002     45.851900000000008     48.502850000000002
C      46.864201000000008     45.439399999999999     47.205849999999991
C      49.844160000000002     47.190800000000003     47.836049999999993
C      47.186107000000007     47.592400000000005     48.257449999999999
C      48.535230000000013     47.987199999999994     48.167650000000002
C      46.263940000000005     48.598700000000001     48.741449999999993
C      49.108210000000000     49.247099999999996     48.376449999999998
C      46.668692000000007     49.822700000000005     48.998749999999994
C      48.039580000000015     50.144100000000002     48.527449999999995
H      45.275239999999997     46.552100000000003     48.187449999999991
H      48.966440000000006     45.780899999999995     49.397849999999998
H      50.474650000000011     45.306900000000006     48.510949999999987
H      46.294340000000005     44.869899999999994     46.504449999999999
H      47.910810000000012     45.133599999999994     47.403249999999993
H      50.830460000000002     47.434999999999995     47.252549999999992
H      45.169539999999998     48.316399999999994     49.010050000000000
H      50.153540000000007     49.293600000000005     48.099349999999994
H      46.148039999999995     50.660800000000002     49.495550000000001
H      48.341900000000010     51.130100000000006     48.651849999999989
