39

C      43.849999999999994     51.207069999999980     49.165550000000003
C      51.813000000000009     46.089559999999985     49.238750000000010
C      47.041300000000000     47.419928999999989     48.932250000000010
C      48.507100000000001     47.958559999999991     49.222549999999998
C      46.198500000000003     51.792299999999997     49.003750000000011
C      45.878900000000009     48.102089999999990     49.130750000000006
C      48.594600000000007     49.165859999999988     49.734549999999999
C      45.271200000000000     50.611679999999993     48.951750000000004
C      47.557600000000001     51.393849999999993     49.380750000000006
C      46.034100000000002     49.476099999999988     49.363150000000005
C      47.424300000000009     49.989409999999992     49.694650000000010
C      46.998500000000000     46.283860000000018     48.056049999999999
C      48.137300000000003     45.795159999999996     47.097050000000010
C      49.371000000000002     45.909959999999991     47.790649999999999
C      49.628200000000000     47.057995999999989     48.702150000000003
C      45.742600000000003     45.546260000000004     48.012250000000009
C      45.507600000000004     44.545559999999995     47.018349999999998
C      46.538900000000005     44.147759999999984     46.070149999999998
C      47.942399999999999     44.576859999999989     46.380450000000010
C      44.477600000000002     47.408476999999991     48.980249999999998
C      44.764700000000012     45.809460000000001     49.093050000000005
C      50.718499999999999     46.937361999999993     49.560050000000004
H      43.505700000000012     51.514959999999988     48.163950000000000
H      43.197600000000001     50.328709999999987     49.313950000000006
H      49.886000000000003     49.754539999999992     49.711849999999998
H      52.802399999999999     46.007960000000004     49.750050000000002
H      51.749400000000001     45.844059999999999     48.139250000000004
H      46.093800000000009     52.781339999999993     48.613150000000005
H      43.679900000000011     51.817589999999981     50.092050000000000
H      48.370500000000000     52.038609999999991     49.259050000000002
H      50.143200000000000     45.129760000000012     47.417250000000010
H      44.582900000000002     43.982959999999991     47.120150000000010
H      46.296600000000005     43.218660000000007     45.567250000000001
H      48.687800000000003     43.628760000000000     46.287750000000003
H      44.251100000000001     47.818256999999988     47.911850000000001
H      43.801900000000010     47.853019999999994     49.718150000000009
H      45.433600000000006     46.127359999999982     50.059750000000008
H      50.625200000000000     47.630599999999987     50.432749999999999
H      43.624500000000005     45.198160000000001     49.172150000000002
