83

C      46.470299999999995     48.392749999999992     44.293049999999987
C      46.655700000000003     47.042349999999992     44.398349999999994
C      42.747100000000003     49.572049999999997     46.704349999999991
C      45.266100000000002     48.786749999999991     45.047849999999997
C      45.571400000000004     46.017149999999994     44.816649999999996
C      43.518999999999998     48.330449999999992     46.732649999999992
C      44.397900000000000     47.881049999999995     45.671049999999994
C      44.443700000000000     46.500049999999995     45.054949999999991
C      47.545299999999990     49.383049999999990     44.036749999999998
C      48.732199999999999     48.701950000000004     43.823650000000001
C      48.911899999999996     47.348449999999993     43.414450000000002
C      47.713300000000011     46.516249999999992     43.529349999999994
C      47.503900000000009     50.747849999999993     44.270550000000000
C      48.701500000000003     51.629849999999998     43.818449999999999
C      49.791300000000000     50.817050000000002     43.496549999999999
C      49.991199999999999     49.412149999999990     43.585650000000001
C      46.205800000000004     51.084550000000000     44.828249999999997
C      45.042900000000003     50.246350000000000     45.219349999999991
C      43.721000000000004     50.753849999999993     45.888750000000002
C      43.165799999999997     47.320549999999990     47.750550000000004
C      45.791400000000003     44.534450000000000     44.829149999999998
C      46.644500000000001     43.648750000000000     44.402549999999991
C      50.172600000000010     46.622750000000003     43.112250000000003
C      51.217800000000004     47.334849999999996     43.508150000000001
C      51.266900000000000     48.788449999999990     43.591349999999991
C      48.496299999999998     52.968950000000000     44.228349999999992
C      47.248500000000000     53.275449999999999     44.881249999999994
C      46.051499999999997     52.441749999999992     44.689549999999997
C      47.790699999999994     42.809449999999991     44.316249999999997
C      43.227300000000000     47.706749999999992     49.159649999999999
C      44.018900000000002     46.789149999999999     50.113050000000001
C      42.169699999999999     48.541449999999990     49.787549999999996
C      45.257300000000001     43.971150000000002     51.493849999999995
C      43.196500000000000     46.159150000000004     52.922849999999997
C      44.095399999999998     44.000849999999993     51.947850000000003
C      43.423700000000004     45.264149999999994     51.922449999999998
C      43.220900000000000     42.920150000000000     51.489149999999995
C      43.043500000000002     45.638950000000001     50.384549999999990
C      42.836800000000004     43.092149999999997     50.182549999999992
C      43.234200000000001     44.321149999999996     49.556049999999999
C      53.687200000000004     50.167949999999998     42.569949999999992
C      52.414400000000001     49.304949999999998     44.430250000000001
C      53.533600000000014     50.032549999999993     44.040549999999996
C      52.549400000000006     48.648750000000000     45.734449999999995
C      54.708799999999989     50.281349999999996     44.639049999999997
C      53.800400000000003     48.685849999999995     46.366550000000004
C      54.843699999999991     49.581349999999993     45.845950000000002
H      48.455500000000008     43.036849999999994     45.313549999999992
H      43.584099999999999     45.850050000000003     45.342349999999996
H      43.045099999999998     51.219850000000001     45.040250000000000
H      43.942700000000002     51.848149999999997     46.396050000000002
H      44.780400000000000     44.194550000000000     45.153549999999996
H      50.187800000000003     45.430550000000004     42.862949999999998
H      52.296999999999990     47.001249999999992     43.535950000000000
H      52.957099999999990     50.798150000000000     42.078850000000003
H      51.814800000000005     50.830750000000002     42.646450000000002
H      49.427900000000001     53.695149999999991     44.002949999999998
H      47.127400000000002     54.388849999999998     45.042050000000003
H      45.013800000000003     52.842750000000002     44.740549999999999
H      47.989200000000004     45.409349999999996     43.212450000000004
H      43.477100000000000     46.351449999999993     47.582250000000002
H      44.997999999999998     46.527449999999995     49.520650000000003
H      44.297699999999999     47.134149999999998     51.078350000000000
H      42.034900000000000     49.736349999999995     45.717849999999999
H      42.561100000000003     50.072650000000003     47.756450000000001
H      47.803800000000003     41.611150000000002     43.700049999999990
H      46.176800000000000     43.606149999999992     52.079349999999991
H      45.294600000000003     43.900449999999999     50.361649999999997
H      43.442200000000000     45.812949999999994     53.921149999999997
H      42.566400000000002     47.197150000000001     52.779949999999999
H      42.981500000000004     42.081449999999997     52.066749999999999
H      41.967399999999998     45.769950000000001     49.905249999999995
H      42.004700000000000     42.578849999999996     49.782749999999993
H      42.445799999999998     44.669350000000001     48.552650000000000
H      53.573200000000007     49.336549999999995     42.166950000000000
H      54.685100000000006     50.679650000000002     42.572549999999993
H      52.020400000000002     48.141749999999995     46.533050000000003
H      55.587000000000010     50.649949999999997     44.097549999999998
H      53.805300000000003     48.245950000000001     47.378249999999994
H      55.591400000000000     50.141249999999992     46.704250000000002
H      40.408600000000000     49.052249999999994     49.754449999999991
N      41.309600000000003     49.147249999999993     50.335250000000002
S      51.439500000000002     51.725749999999998     43.309550000000002
