5

C      48.139699999999991     47.950899999999990     48.159949999999995
H      48.378599999999999     48.831100000000006     48.860350000000004
H      48.878099999999996     47.738600000000005     47.138449999999999
H      48.047899999999998     47.168899999999994     48.861550000000001
H      47.121900000000004     48.421300000000002     47.863050000000001
