51

C      49.847799999999992     49.264049999999990     45.911699999999989
C      50.971399999999988     48.404449999999997     45.603899999999996
C      48.946899999999999     46.688350000000000     50.103999999999999
C      50.237199999999987     46.042049999999996     50.118600000000001
C      49.106600000000000     49.037450000000000     47.133299999999991
C      51.355699999999985     47.258649999999996     46.408299999999997
C      48.652199999999993     47.550049999999999     48.972499999999997
C      51.043099999999995     46.293650000000000     48.913600000000002
C      49.422599999999989     47.833250000000000     47.857599999999991
C      50.653999999999996     46.999350000000000     47.655799999999999
C      49.529100000000000     50.434349999999995     45.036999999999992
C      50.397999999999996     50.723149999999990     44.039899999999996
C      51.502600000000001     49.841650000000001     43.900499999999994
C      51.994199999999992     48.772849999999998     44.688699999999997
C      47.946199999999990     46.530449999999995     51.264699999999991
C      48.396299999999997     45.818849999999998     52.405699999999996
C      49.688499999999991     45.108949999999993     52.256099999999989
C      50.565500000000000     45.194350000000000     51.292099999999991
C      48.238099999999989     50.991749999999996     45.062799999999996
C      47.810499999999990     52.152150000000006     44.287299999999995
C      48.756900000000002     52.477050000000006     43.256299999999996
C      49.942299999999989     51.778749999999988     43.021499999999996
C      47.445499999999996     50.703450000000004     46.283299999999997
C      47.902599999999993     49.840750000000000     47.225499999999997
C      46.935899999999990     49.393550000000005     48.306699999999992
C      47.483099999999993     48.456049999999998     49.214299999999994
C      46.770199999999988     47.375349999999997     51.186999999999998
C      46.485299999999995     48.368449999999996     50.342900000000000
C      51.746600000000001     44.282649999999997     51.259099999999989
C      45.091200000000001     48.881949999999996     50.349299999999999
C      44.435400000000001     48.108049999999999     51.279199999999989
C      45.601599999999991     47.588349999999998     52.045899999999989
C      49.837599999999995     44.061949999999996     53.386299999999991
H      52.410499999999999     46.802149999999997     46.253999999999991
H      52.113299999999995     46.028749999999995     49.252600000000001
H      52.390899999999988     50.324449999999999     43.244999999999997
H      52.649799999999999     47.884849999999993     44.510799999999996
H      47.762000000000000     45.769250000000000     53.195099999999996
H      46.991500000000002     52.705749999999995     44.287700000000001
H      48.155299999999997     53.136949999999999     42.602699999999999
H      50.415999999999997     51.962549999999993     42.067200000000000
H      46.492799999999988     51.335749999999990     46.416799999999995
H      45.825899999999990     49.617549999999994     48.385099999999994
H      52.363099999999989     44.440249999999992     50.434199999999990
H      44.612399999999994     49.348149999999997     49.461999999999989
H      43.350200000000001     48.224549999999994     51.896199999999993
H      45.075099999999992     46.951949999999997     52.888199999999998
H      48.848599999999990     43.980849999999997     53.777499999999989
H      49.582200000000000     42.863050000000001     53.066999999999993
H      50.808699999999988     44.044849999999997     53.932800000000000
O      52.052099999999996     43.608949999999993     52.138899999999992
