9

C      48.428100000000001     48.461149999999996     48.692999999999991
C      48.014099999999999     48.466189999999997     47.352499999999999
C      48.062799999999996     46.924100000000003     47.060800000000000
H      48.898299999999992     46.767629999999997     46.334400000000002
H      48.531800000000004     49.514740000000003     48.830599999999990
H      48.599299999999999     47.976150000000004     49.665599999999998
H      48.255200000000002     49.424039999999998     46.749400000000001
H      48.552899999999994     46.485259999999997     48.030499999999996
H      47.101700000000008     46.804250000000003     46.678300000000000
