5

C      47.400614999999995     48.047849999999990     48.006799999999998
C      48.466094999999996     47.876849999999997     48.718599999999995
H      47.376345000000001     48.500850000000000     47.082700000000003
H      46.575164999999998     48.480750000000000     48.679699999999997
H      49.424835000000002     47.499150000000000     48.917299999999997
