6

C      47.145549999999986     48.022700000000000     48.100449999999995
C      48.401659999999993     48.071200000000005     47.852449999999997
H      46.891979999999990     47.680099999999996     49.003049999999995
H      46.732609999999994     48.082200000000000     47.167149999999999
H      48.660049999999998     48.319900000000004     46.996950000000005
H      49.267390000000006     48.256100000000004     48.658549999999998
