49

C      46.588029999999996     49.174209999999988     47.358800000000002
C      47.993220000000008     49.037019999999998     47.230100000000000
C      45.995290000000004     45.198520000000002     45.482300000000002
C      45.474490000000003     48.753289999999993     46.390300000000003
C      48.399029999999996     47.597549999999998     46.946300000000001
C      45.140000000000001     46.241169999999997     45.747199999999999
C      47.464660000000009     45.502609999999990     46.114200000000004
C      45.998470000000005     47.349009999999993     46.099700000000006
C      47.400460000000010     47.030749999999998     46.118800000000000
C      46.248360000000005     50.328659999999999     48.205800000000004
C      48.192560000000000     51.379570000000001     47.810000000000009
C      48.869950000000003     49.971510000000009     47.795100000000012
C      44.062500000000000     48.710729999999998     46.970200000000013
C      44.066189999999999     50.252340000000004     47.975400000000000
C      45.034109999999998     50.148669999999996     49.023100000000007
C      52.241540000000001     50.015299999999996     49.190600000000011
C      50.922370000000001     50.363019999999992     48.812600000000010
C      44.651510000000002     50.350430000000003     50.437800000000003
C      43.281269999999999     49.857360000000000     50.841600000000007
C      52.894340000000000     49.865269999999995     50.407299999999999
C      50.655109999999993     51.673099999999991     49.676800000000007
C      45.887900000000002     44.054244999999995     44.557200000000002
C      45.441780000000001     49.746789999999990     45.132100000000001
H      44.140850000000000     46.240309999999994     45.364200000000004
H      48.199280000000002     44.946669999999997     45.368300000000012
H      47.369190000000003     45.300849999999997     47.191700000000004
H      43.751880000000000     47.821590000000000     47.579600000000006
H      43.504580000000004     48.585679999999996     45.882600000000004
H      43.075369999999999     50.326929999999990     48.475700000000010
H      44.045490000000001     50.967349999999996     47.091700000000010
H      52.824240000000003     49.426679999999990     48.561100000000003
H      43.150510000000004     50.125540000000001     52.006599999999999
H      43.595930000000003     48.977319999999992     51.369700000000002
H      42.359960000000001     50.039320000000004     50.166600000000010
H      49.439750000000004     47.161649999999995     47.188400000000009
H      53.640039999999999     49.643180000000001     51.164800000000007
H      52.030640000000005     50.131109999999993     51.072700000000005
H      49.762580000000000     51.286499999999990     50.230200000000004
H      51.546340000000001     52.106989999999996     50.426100000000012
H      50.620670000000004     52.585740000000001     49.256900000000009
H      45.075279999999999     43.749060000000014     43.993400000000001
H      46.375740000000000     43.414259999999999     45.335900000000002
H      46.234610000000004     50.828689999999995     45.441900000000011
H      46.236969999999999     49.425129999999996     44.410100000000007
H      44.494330000000005     50.063569999999999     44.577800000000003
N      46.940629999999999     51.396839999999997     48.244100000000010
N      50.145409999999998     49.665529999999990     48.017900000000004
O      45.685670000000002     50.775279999999995     50.917999999999999
O      48.768460000000005     52.445709999999991     47.764500000000005
