6

C      48.356199999999987     47.300749999999994     48.179299999999991
C      47.829999999999998     48.520049999999998     47.767400000000002
H      49.352900000000005     47.167449999999995     48.288899999999998
H      47.610100000000003     46.569049999999997     48.039299999999997
H      46.647099999999995     48.463850000000001     47.805399999999999
H      48.303699999999992     49.430950000000003     47.711100000000002
