22

C      47.680149999999990     49.801499999999990     49.515604999999994
C      47.983249999999998     48.261199999999995     49.923504999999992
C      48.785550000000001     50.814699999999995     50.022705000000002
C      47.901550000000000     49.821700000000000     48.004404999999991
C      48.135449999999999     47.521499999999996     48.615605000000002
C      48.340549999999993     48.348799999999997     47.603205000000003
C      48.247249999999994     46.103199999999994     48.510104999999996
C      48.719250000000002     47.658299999999997     46.384054999999989
C      48.134649999999993     45.457599999999999     47.197504999999992
C      48.199050000000000     46.361799999999995     46.088314999999994
H      49.519250000000000     51.104700000000001     49.259904999999989
H      48.460049999999995     50.556499999999993     47.870705000000001
H      46.480750000000000     49.881799999999998     49.421605000000000
H      49.022350000000003     48.319099999999999     50.404204999999990
H      47.035150000000002     47.746599999999994     50.384704999999997
H      49.350849999999994     50.680399999999999     50.917704999999998
H      48.125950000000003     51.622599999999998     50.410904999999985
H      46.912949999999995     49.913000000000004     47.866504999999989
H      48.195250000000001     45.349899999999998     49.451504999999997
H      49.212149999999994     47.915500000000002     45.382665000000003
H      47.951949999999997     44.377400000000002     47.137405000000001
H      48.316149999999993     45.879999999999995     45.082295000000002
