5

C      48.271899999999988     47.976199999999992     47.828899999999997
H      48.731800000000000     48.805500000000002     47.620600000000003
H      47.268200000000000     48.157200000000010     48.083200000000005
H      48.635199999999990     47.194499999999998     47.090900000000005
H      48.588000000000001     47.984400000000001     48.909099999999995
