41

C      48.234399999999987     47.629849999999998     47.805554999999991
C      49.433300000000003     47.253050000000002     48.573824999999999
C      49.167000000000002     51.587250000000004     49.915684999999996
C      49.897400000000005     51.204850000000008     51.124484999999993
C      47.503799999999998     48.454050000000009     48.669894999999997
C      49.799000000000007     47.728150000000007     49.810084999999987
C      48.416499999999999     50.879349999999995     49.005184999999997
C      49.844499999999996     49.813449999999996     51.375285000000005
C      48.288200000000003     49.420549999999999     49.427984999999993
C      49.363299999999995     48.974950000000000     50.358884999999994
C      47.807000000000002     46.869750000000003     46.576074999999996
C      48.550899999999999     45.676450000000003     46.319954999999993
C      49.458399999999997     45.133949999999999     47.183894999999993
C      49.763800000000003     45.885150000000003     48.323354999999992
C      45.978999999999999     48.501150000000003     48.748244999999997
C      45.743499999999997     46.287750000000003     45.855534999999996
C      46.425299999999993     47.209949999999999     46.307794999999999
C      48.307100000000005     45.123350000000002     44.988244999999992
C      45.121600000000001     48.579950000000011     47.749944999999997
C      45.746799999999993     48.535150000000016     46.306644999999996
C      50.859300000000005     45.248249999999999     49.260454999999993
C      50.680599999999998     44.301150000000000     46.658034999999998
H      49.578599999999994     52.614249999999998     49.426985000000002
H      50.335999999999999     52.005850000000002     51.743984999999995
H      48.129400000000004     51.319350000000014     47.947684999999993
H      46.252799999999993     45.291750000000000     45.680064999999999
H      44.967500000000001     46.667349999999999     45.047944999999999
H      48.586399999999998     44.026550000000000     44.765524999999997
H      45.448999999999998     48.291249999999991     49.727984999999990
H      44.020499999999998     48.579550000000005     47.771394999999998
H      50.455699999999993     47.219149999999999     50.578084999999987
H      46.579899999999995     49.157750000000007     46.144624999999998
H      44.987700000000004     48.832149999999999     45.563354999999994
H      50.958900000000000     44.212850000000003     48.776024999999997
H      50.644300000000001     43.864250000000006     45.512584999999994
H      50.174899999999994     43.385750000000002     46.888984999999998
H      51.534300000000002     43.881450000000001     47.271624999999993
H      50.689499999999995     49.452850000000005     51.927385000000001
H      50.402299999999997     44.861750000000001     50.173784999999995
H      51.979500000000002     45.699350000000003     49.356385000000003
O      48.348699999999994     45.896350000000005     44.072614999999999
