6

C      48.405149999999992     47.528649999999985     47.787499999999994
C      47.487850000000009     48.553350000000009     48.153699999999994
H      49.219949999999997     47.983249999999998     47.050400000000003
H      48.202849999999998     46.426949999999991     47.629899999999999
H      47.598849999999999     49.573050000000009     47.784199999999991
H      46.780050000000003     48.480350000000001     48.949599999999997
