16

C      47.596199999999989     48.657249999999998     49.885549999999995
C      48.928399999999996     46.127549999999999     49.648150000000001
C      48.284899999999993     48.415850000000006     48.895049999999998
C      48.631499999999988     47.088750000000005     48.591149999999999
C      48.372199999999992     49.498250000000013     47.828150000000008
C      48.467799999999997     46.832750000000004     47.185950000000005
C      48.614199999999997     49.139450000000004     46.593249999999998
C      48.621799999999993     47.737949999999998     46.110250000000008
H      46.504599999999996     48.986450000000005     49.885649999999998
H      47.776499999999992     48.291550000000001     50.888549999999995
H      49.091799999999992     46.572550000000007     50.594649999999987
H      49.495400000000004     45.468750000000000     49.546650000000000
H      48.030599999999993     50.531250000000000     47.951750000000004
H      48.326299999999996     45.807450000000003     46.881650000000008
H      48.470199999999991     50.112449999999995     45.679450000000003
H      48.520299999999992     47.441350000000000     45.111450000000005
