64

C      44.929349999999992     47.214899999999986     52.196379999999998
C      46.100049999999996     47.398499999999999     51.869170000000004
C      50.378450000000001     46.306600000000003     44.956391000000004
C      43.816850000000002     45.876800000000003     50.267790000000005
C      49.428449999999998     45.938900000000004     44.053600000000024
C      49.727850000000004     46.730599999999995     46.287770000000002
C      46.503349999999998     47.436900000000009     50.458450000000006
C      46.791150000000002     45.009000000000000     43.541900000000005
C      45.653050000000007     45.169700000000006     44.503270800000003
C      44.378650000000007     45.507999999999996     47.733050000000006
C      47.726750000000010     46.969399999999993     48.011300000000006
C      48.052549999999997     45.634500000000003     44.105400000000017
C      44.617249999999999     45.995099999999994     49.158040000000007
C      48.375450000000001     46.640400000000000     46.713260000000005
C      45.965550000000007     46.490799999999993     49.602450000000005
C      46.255449999999996     45.642099999999999     45.750130000000006
C      46.400850000000005     46.369299999999996     48.102920000000005
C      45.662649999999999     45.992800000000003     46.985390000000002
C      47.552750000000003     46.116299999999995     45.478280000000005
C      47.599450000000004     48.258600000000001     49.936590000000002
C      48.518150000000006     47.575000000000003     48.982480000000002
C      49.922449999999998     47.632800000000003     48.514120000000005
C      50.490850000000009     47.392099999999999     47.340130000000002
C      46.851250000000007     48.029499999999999     53.024890000000006
C      46.468050000000005     50.372000000000000     50.713920000000002
C      47.425550000000001     49.603400000000008     49.946810000000006
C      51.834950000000006     46.819299999999998     45.201608000000007
C      52.679950000000005     45.669300000000007     44.543919000000002
C      50.446150000000003     45.798299999999998     42.715600000000009
C      51.264550000000000     47.003599999999992     42.168100000000017
C      47.933149999999998     47.630299999999991     53.886250000000004
C      46.582949999999997     51.647099999999995     50.060490000000001
C      53.775250000000000     44.865099999999998     44.898727000000008
C      44.140550000000005     43.942800000000005     47.482310000000005
C      43.023949999999999     46.194800000000001     47.282010000000007
C      42.651150000000001     46.186599999999999     45.981640000000006
H      44.520750000000007     47.339100000000002     53.335000000000008
H      44.713149999999999     44.979699999999994     44.487652280000006
H      50.504750000000001     48.105900000000005     49.369900000000001
H      51.502150000000000     47.685299999999998     47.556310000000003
H      46.656649999999999     49.174999999999997     53.210110000000007
H      45.504350000000002     49.873699999999999     51.123950000000008
H      47.866550000000004     50.384699999999995     49.248700000000007
H      51.686050000000009     44.978999999999999     44.332900000000002
H      51.310050000000004     46.966200000000001     41.121600000000001
H      52.378250000000008     46.607299999999995     42.307900000000032
H      50.924149999999997     47.955399999999997     42.619500000000016
H      42.766750000000002     45.465699999999998     50.137330000000006
H      48.269450000000006     47.848500000000001     54.878399999999999
H      48.593350000000001     46.765799999999999     53.718850000000003
H      46.007050000000007     52.610799999999998     50.199430000000007
H      47.590150000000008     51.981700000000004     49.901690000000002
H      54.461550000000003     45.091600000000000     45.823700000000002
H      53.608249999999998     43.823499999999996     44.513071700000005
H      43.250250000000008     43.558700000000002     47.942140000000002
H      43.544550000000001     43.389200000000002     46.652380000000008
H      43.479349999999997     45.620199999999997     45.336944000000003
H      42.478750000000005     46.488799999999998     48.242190000000008
H      41.538449999999997     46.458100000000002     45.590850000000003
H      46.722549999999998     44.620199999999997     42.380200000000002
H      45.018250000000009     43.667900000000003     47.845340000000007
O      52.244749999999996     47.837400000000002     45.651650000000004
O      50.466250000000002     44.738000000000000     42.237700000000025
O      43.764150000000001     46.413799999999995     51.432320000000004
