5

C      47.994289999999992     48.125049999999987     48.134699999999995
H      48.416560000000004     48.806150000000002     48.895299999999999
H      48.389110000000002     47.923949999999991     47.104700000000001
H      47.707130000000006     47.019149999999996     48.305399999999999
H      47.583439999999996     48.980850000000004     47.375000000000007
