9

C      48.627399999999994     48.971499999999992     47.269049999999993
C      48.548600000000000     47.827200000000005     47.726849999999999
C      47.674900000000001     47.283600000000007     48.775549999999996
H      48.959899999999998     49.075900000000004     46.291150000000002
H      48.053699999999999     49.655000000000001     47.754949999999994
H      49.357300000000002     47.101299999999995     47.243049999999997
H      48.352100000000000     47.667500000000004     49.708849999999998
H      47.672499999999999     46.344999999999999     48.605449999999990
H      46.642699999999998     47.937399999999997     48.747749999999996
