6

C      47.902704999999990     47.337949999999992     48.226949999999988
C      47.837985000000003     48.706249999999997     47.813849999999988
H      47.953994999999999     46.410449999999997     47.621349999999993
H      48.193905000000001     47.550650000000005     49.326149999999998
H      47.806094999999999     49.589550000000003     48.643849999999986
H      47.827084999999997     48.855350000000001     46.673850000000002
