20

C      45.908999999999985     47.360399999999991     49.641950000000001
C      49.641300000000001     45.689300000000003     47.591850000000008
C      46.507300000000001     47.234299999999998     48.495149999999995
C      49.084400000000002     46.420499999999997     46.633550000000000
C      47.729299999999995     48.173800000000000     48.178350000000009
C      48.804900000000004     47.935999999999993     47.205349999999996
C      47.709400000000002     49.469200000000001     48.592349999999996
C      49.966600000000000     48.611100000000008     46.847850000000008
C      48.686499999999995     50.373399999999990     47.996049999999997
C      49.688900000000004     49.969700000000003     47.161650000000009
H      46.121300000000005     48.099800000000002     50.400350000000003
H      49.509399999999999     44.540300000000002     47.256150000000005
H      49.624099999999999     46.213700000000003     48.498850000000004
H      46.324600000000004     46.453699999999998     47.814050000000009
H      45.089900000000000     46.588900000000002     50.022350000000003
H      48.977300000000000     46.200699999999998     45.599649999999997
H      46.797299999999993     49.690100000000001     49.167850000000001
H      50.910100000000000     48.196699999999993     46.382649999999998
H      48.264099999999999     51.459699999999998     48.225949999999997
H      50.220500000000001     50.793799999999997     46.681449999999998
