6

C      47.819349999999993     48.643099999999990     48.074924999999993
C      47.835949999999997     47.279520000000005     48.041715000000003
H      47.231049999999996     49.394390000000001     47.402374999999999
H      48.735650000000007     49.129110000000011     48.327675000000006
H      48.811250000000001     46.895550000000000     48.597625000000001
H      47.188749999999999     46.605609999999999     47.723644999999998
