20

C      47.203349999999993     47.900199999999998     50.414249999999981
C      46.175150000000002     49.836999999999996     47.993149999999993
C      48.398650000000004     47.976999999999997     49.672249999999998
C      46.415749999999996     48.508500000000005     47.354149999999997
C      48.792049999999989     47.756900000000009     48.275349999999996
C      47.743650000000002     47.924100000000003     47.291350000000001
C      49.851849999999999     46.938499999999998     47.863650000000000
C      48.052149999999997     47.549700000000009     45.910149999999994
C      50.099150000000009     46.605300000000007     46.567850000000000
C      49.347650000000002     47.215499999999999     45.476549999999996
H      47.045150000000000     48.104599999999998     51.508749999999999
H      46.122549999999997     47.930399999999999     49.788350000000001
H      46.469949999999997     49.649999999999999     49.047649999999997
H      45.088250000000002     50.261000000000003     47.867349999999995
H      49.443349999999995     47.967400000000005     50.077349999999988
H      45.998849999999997     48.789700000000003     46.356049999999989
H      50.764749999999992     46.598400000000005     48.509049999999995
H      47.228450000000002     47.953300000000006     45.247449999999994
H      50.911749999999998     45.738999999999997     46.203150000000001
H      49.682650000000002     47.117500000000000     44.491250000000001
