5

C      47.948249999999994     47.852799999999995     47.961349999999996
H      47.667050000000003     48.828299999999999     47.272350000000003
H      48.794449999999998     47.171700000000001     47.502150000000000
H      47.205550000000002     47.288899999999998     48.436949999999996
H      48.502449999999996     48.143100000000004     48.727649999999997
