22

C      48.888100000000001     48.781499999999987     46.189249999999994
C      48.944800000000001     49.224699999999984     44.790949999999995
C      47.978999999999999     48.926400000000001     46.910349999999994
C      49.089600000000004     49.373699999999985     50.249949999999998
C      47.964500000000001     48.015199999999993     48.332049999999995
C      48.254599999999996     48.257299999999994     49.645749999999992
C      47.043599999999998     46.823699999999995     48.122749999999996
C      47.680099999999996     47.385299999999994     50.786450000000002
C      46.585099999999997     46.154799999999994     49.175749999999994
C      46.909000000000006     46.335699999999996     50.632549999999995
H      49.905500000000004     49.020799999999994     44.340750000000000
H      49.934399999999997     48.427499999999995     46.453249999999997
H      48.219899999999996     49.095199999999991     44.102350000000001
H      49.234099999999998     50.467600000000004     44.803750000000001
H      50.236300000000000     49.252199999999995     49.699050000000000
H      46.872900000000001     49.404699999999991     46.817049999999995
H      49.027100000000004     49.354100000000003     51.345649999999992
H      48.937399999999997     50.416999999999994     49.863849999999999
H      46.664900000000003     46.616499999999995     47.073250000000002
H      47.647599999999997     47.418699999999994     51.897649999999999
H      45.763700000000000     45.532399999999996     49.156149999999997
H      46.692300000000003     45.791199999999996     51.494450000000001
