6

C      47.529150000000001     48.300149999999988     47.789500000000004
C      48.655150000000006     47.624250000000004     48.075230000000005
H      46.503150000000005     47.985550000000003     47.708960000000005
H      47.748649999999998     49.384550000000004     48.111230000000006
H      48.878650000000007     46.615449999999996     47.912890000000004
H      49.496849999999995     48.241749999999996     48.291039999999995
