6

C      47.817849999999986     48.328449999999989     47.579449999999994
C      47.933149999999998     47.489950000000007     48.488750000000003
H      48.599850000000004     48.292349999999999     46.779649999999997
H      47.467349999999996     49.352050000000006     47.852550000000001
H      48.595149999999990     46.647949999999994     48.324249999999999
H      47.400149999999996     48.005350000000007     49.220350000000003
