18

C      46.073004999999995     48.442299999999996     46.310450000000003
C      46.554994999999998     49.749400000000009     46.204250000000009
C      46.079524999999997     47.378900000000002     46.987150000000007
C      47.637504999999997     49.836500000000001     47.263849999999998
C      47.095585000000000     47.382500000000007     48.245849999999997
C      48.135775000000002     48.452700000000007     48.129250000000006
C      47.098315000000007     46.292800000000000     49.055750000000010
C      49.194475000000004     47.975999999999999     48.923150000000000
C      47.994774999999997     46.218199999999996     50.188350000000007
C      49.135375000000003     47.047799999999995     50.137750000000004
H      47.364595000000001     50.571200000000005     47.916050000000006
H      46.779975000000000     49.816699999999997     44.985650000000000
H      45.857025000000000     46.457899999999995     46.333750000000002
H      48.375374999999998     50.373400000000004     46.894050000000000
H      46.406105000000004     45.428799999999995     48.865250000000010
H      50.142975000000000     48.583900000000000     48.723649999999999
H      47.982075000000002     45.511899999999997     50.913649999999997
H      49.687175000000003     47.275099999999995     51.014350000000000
