20

C      47.755743499999994     47.648099999999985     50.170499999999990
C      47.417713499999998     49.021599999999999     50.002099999999999
C      48.902943499999999     47.227100000000000     49.218599999999995
C      46.276035499999999     48.872199999999999     48.947100000000006
C      48.587563500000002     48.034299999999995     47.953500000000005
C      47.140523500000000     48.144600000000004     47.894700000000000
C      47.075813500000002     47.989699999999992     46.486699999999999
C      49.392723500000010     47.794000000000004     46.729299999999995
C      48.356413500000002     47.890499999999996     45.842100000000002
H      48.297083499999992     47.476499999999994     51.170500000000004
H      46.943093499999996     46.789300000000004     50.193300000000008
H      48.401213499999997     49.586599999999997     49.738500000000002
H      47.064063499999996     49.368699999999997     50.992800000000003
H      49.341033500000002     46.086000000000006     49.249499999999998
H      50.022873499999996     47.256300000000003     49.747500000000002
H      45.463446499999996     48.135899999999999     49.129199999999997
H      46.178177499999997     49.913999999999994     48.526899999999998
H      46.113896500000003     47.922800000000002     45.995599999999996
H      50.536553500000004     47.950399999999995     46.536299999999997
H      48.567473499999998     48.076699999999995     44.829499999999996
