5

C      47.991899999999987     47.714399999999998     48.006549999999990
H      49.048900000000003     47.995800000000003     47.832549999999998
H      47.809500000000000     46.628299999999996     48.648650000000004
H      46.973900000000000     49.371700000000004     47.351349999999996
N      46.951099999999997     48.431299999999993     47.776949999999999
