21

C      45.206349999999986     47.778399999999991     46.679449999999989
C      46.407549999999993     48.498399999999997     46.769749999999995
C      48.962550000000000     50.353799999999993     47.163450000000005
C      51.287149999999990     49.219799999999992     48.984749999999984
C      48.852049999999998     49.023199999999996     47.789949999999997
C      50.081249999999990     48.566700000000004     48.343450000000004
C      47.602249999999991     48.077199999999998     47.606749999999998
C      50.190549999999995     47.111499999999992     48.631649999999986
C      47.877849999999988     46.823899999999995     47.953649999999989
C      49.189949999999989     46.280499999999996     48.258649999999996
H      44.086649999999999     48.240299999999998     46.368249999999996
H      44.999749999999999     47.361899999999999     47.641849999999998
H      46.661049999999996     49.672199999999997     46.696149999999996
H      51.766449999999999     49.469799999999985     48.171149999999997
H      48.122149999999998     50.646699999999996     46.527650000000001
H      49.895849999999989     50.807700000000004     46.916950000000007
H      50.948049999999988     50.144699999999993     49.479649999999992
H      51.913350000000001     48.463900000000002     49.631750000000004
H      51.164849999999994     46.775199999999998     49.068349999999988
H      46.993949999999991     46.204899999999995     47.963450000000002
H      49.489550000000001     45.192299999999996     48.303449999999998
