6

C      47.550799999999995     47.612099999999991     48.050799999999995
C      48.358499999999992     48.640400000000000     47.983100000000000
H      47.846999999999994     46.548400000000001     48.104300000000002
H      46.558300000000003     47.701499999999996     48.424900000000001
H      47.857500000000002     49.451599999999999     48.399600000000000
H      49.441699999999997     48.507799999999996     47.575099999999999
