36

C      48.411399999999986     47.793999999999990     47.901799999999994
C      48.635299999999994     48.898799999999994     48.747700000000002
C      44.733799999999995     45.822400000000002     49.955599999999997
C      47.516299999999994     46.851500000000001     48.137500000000003
C      48.086800000000004     48.788899999999998     50.018099999999997
C      45.735300000000002     45.824700000000000     49.282900000000005
C      46.771700000000003     47.027200000000001     49.425300000000000
C      46.927299999999995     47.903700000000001     50.486100000000000
C      49.055000000000000     47.511899999999997     46.564200000000007
C      50.203899999999997     48.477499999999992     46.305799999999998
C      50.633599999999994     49.368400000000008     47.300900000000006
C      49.625300000000003     49.848100000000002     48.203099999999999
C      47.035800000000002     45.796799999999998     47.321000000000005
C      47.871000000000002     45.400399999999998     46.267000000000003
C      48.537599999999991     46.563400000000001     45.735300000000002
C      48.302799999999998     50.038100000000000     50.810600000000001
C      48.715100000000000     51.374000000000002     50.410000000000004
C      49.783999999999999     51.179699999999997     48.823799999999999
C      45.955499999999994     44.939500000000002     48.149099999999997
C      51.394299999999994     48.150399999999998     45.379200000000004
H      44.459899999999998     45.059199999999997     50.814500000000002
H      46.287100000000002     48.217300000000002     51.248100000000001
H      51.619300000000003     49.703800000000001     47.519700000000007
H      47.783200000000001     44.505099999999999     45.774300000000004
H      49.187800000000003     46.413899999999998     44.885399999999997
H      47.810799999999993     49.807899999999989     51.805799999999998
H      49.048600000000000     51.781199999999998     51.366000000000007
H      47.924500000000002     51.640999999999998     49.815700000000000
H      49.371599999999994     52.111400000000003     48.205800000000004
H      50.659799999999997     51.953500000000005     48.695399999999999
H      46.077099999999994     43.888599999999997     48.340800000000009
H      43.528900000000000     45.842100000000002     49.490500000000004
H      44.914600000000000     44.568700000000000     47.678800000000003
H      52.471100000000000     48.612099999999998     45.706800000000001
H      51.018899999999995     48.207599999999999     44.194200000000002
H      51.657499999999992     47.126300000000001     45.664500000000004
