6

C      48.348449999999993     48.058199999999985     47.463699999999989
C      47.517350000000000     47.671300000000002     48.492699999999992
H      47.964050000000000     48.888499999999993     46.746299999999998
H      49.320350000000005     47.550899999999999     47.501899999999999
H      46.679649999999995     48.418700000000001     48.501799999999996
H      47.567549999999997     47.111500000000007     49.253700000000002
