5

C      47.929949999999991     47.949299999999994     48.203499999999991
H      48.068849999999991     48.037300000000002     47.036199999999994
H      47.465350000000001     49.005200000000002     48.341400000000007
H      47.321249999999999     46.994799999999998     48.247200000000007
H      48.678750000000001     47.767800000000008     48.963800000000006
