6

C      48.317049999999995     47.437849999999997     47.925049999999992
C      47.960450000000002     48.619349999999997     47.917549999999999
H      49.175850000000004     47.183350000000004     47.331849999999996
H      48.189749999999997     46.835350000000005     48.888750000000002
H      46.824149999999996     48.836249999999993     47.459049999999998
H      48.538649999999997     49.164649999999995     47.111249999999998
