6

C      48.203549999999993     48.651799999999994     47.877864999999993
C      47.707650000000001     47.427700000000002     47.837855000000005
H      47.746949999999998     49.092300000000002     47.003805000000000
H      49.084750000000000     48.870000000000012     48.592905000000002
H      48.133150000000001     46.907699999999998     48.996195000000000
H      46.915250000000000     47.187700000000000     47.083655000000000
