20

C      48.820299999999989     49.760449999999992     49.443499999999993
C      48.515999999999998     50.516950000000001     48.091600000000000
C      48.053800000000003     48.658149999999999     49.814000000000000
C      47.579699999999995     49.829349999999998     47.179800000000000
C      47.392699999999998     47.737349999999999     48.761899999999997
C      47.213100000000004     48.354750000000003     47.479999999999997
C      47.291999999999994     46.405149999999999     49.210599999999999
C      46.819499999999998     47.410049999999998     46.602399999999996
C      47.102299999999993     45.430650000000000     48.190500000000000
C      46.759300000000003     45.954450000000001     46.934899999999999
H      46.313499999999998     50.414749999999998     47.080399999999997
H      49.709700000000005     50.339550000000010     49.736300000000000
H      48.159100000000002     51.550350000000002     48.126899999999999
H      49.535299999999999     50.306750000000001     47.736300000000000
H      48.024999999999999     48.068649999999998     50.666499999999999
H      47.357700000000001     50.337249999999990     46.252099999999999
H      47.515499999999996     46.083050000000000     50.292999999999999
H      47.041300000000000     47.344650000000001     45.333500000000001
H      47.044199999999996     44.449649999999998     48.325199999999995
H      46.290299999999995     45.103650000000002     46.153099999999995
