7

C      47.710149999999992     49.351949999999995     48.257949999999994
C      47.630150000000000     48.001850000000005     48.034350000000003
C      47.657350000000001     46.745649999999998     47.663850000000004
H      48.200350000000000     46.536149999999999     46.623150000000003
H      48.631850000000000     50.125749999999996     48.192450000000001
H      47.597949999999997     49.787549999999996     49.376849999999997
H      47.368150000000000     45.874250000000004     48.298650000000002
