19

C      47.121149999999993     49.511699999999990     45.315949999999987
C      49.648550000000000     46.766100000000002     48.544149999999995
C      48.843449999999990     48.906900000000000     50.498049999999999
C      48.761949999999999     48.051499999999997     48.254249999999992
C      48.051749999999998     48.730200000000004     49.386649999999996
C      48.649050000000003     48.409900000000000     46.899049999999995
C      46.860450000000000     49.483799999999995     48.964149999999997
C      47.405249999999995     49.046900000000001     46.548949999999998
C      46.498750000000001     49.201999999999991     47.633749999999999
H      46.222450000000002     50.214499999999994     45.134549999999997
H      49.507150000000010     46.775699999999993     49.675850000000004
H      49.080050000000000     45.623899999999999     48.357149999999997
H      50.502650000000003     46.984199999999994     47.862450000000003
H      48.613150000000005     49.563499999999998     51.306149999999995
H      49.355750000000000     48.203099999999999     46.101649999999999
H      46.679250000000003     50.376100000000001     49.526549999999993
H      48.178849999999997     49.577400000000004     44.693850000000005
H      45.497349999999997     49.568000000000005     47.508450000000003
H      49.957549999999998     48.736799999999995     50.553549999999994
