18

C      46.202199999999991     48.001249999999999     49.852999999999994
C      47.403399999999998     47.343049999999998     50.463699999999996
C      46.475500000000004     48.644050000000000     48.623500000000000
C      48.534699999999994     47.333450000000006     49.757899999999999
C      47.614200000000004     48.323550000000004     47.753899999999994
C      48.658499999999997     47.590250000000005     48.411999999999999
C      47.677100000000003     48.492150000000002     46.312099999999994
C      49.751699999999992     47.250450000000008     47.698200000000007
C      48.924799999999998     48.381850000000007     45.598199999999999
C      49.975100000000005     47.726149999999997     46.333800000000004
H      45.193099999999994     48.348250000000000     50.178800000000003
H      47.272200000000005     47.160350000000001     51.486700000000006
H      45.601099999999995     49.361950000000000     48.273699999999998
H      49.557600000000001     46.877249999999997     49.729000000000006
H      46.764599999999994     48.782649999999997     45.792700000000004
H      50.661499999999997     46.638050000000000     47.863199999999999
H      49.023299999999999     48.465349999999994     44.513299999999994
H      50.806900000000006     47.693350000000002     45.674900000000001
