42

C      48.133999999999986     47.476749999999996     48.539949999999990
C      49.417199999999994     47.552150000000005     49.185850000000002
C      46.831900000000005     46.282950000000000     52.753250000000008
C      47.041799999999995     46.670150000000000     49.069350000000000
C      49.421300000000002     47.217050000000000     50.599450000000004
C      46.060400000000001     46.361849999999997     51.468249999999998
C      47.108900000000006     46.741950000000003     50.549750000000003
C      48.180700000000002     46.872050000000002     51.342849999999999
C      48.024299999999997     47.985149999999997     47.235749999999996
C      49.068700000000007     48.444049999999997     46.316450000000003
C      50.329700000000003     48.337949999999999     46.988950000000003
C      50.447299999999998     48.057749999999999     48.326449999999994
C      46.668499999999995     48.034149999999990     46.762450000000001
C      46.325800000000001     48.623049999999999     45.539349999999999
C      47.376499999999993     49.084550000000000     44.776849999999996
C      48.805800000000005     48.928750000000001     44.973250000000007
C      45.557199999999995     47.275849999999998     47.395150000000001
C      45.605199999999996     46.596150000000002     48.705550000000002
C      44.650499999999994     45.687649999999998     49.526650000000004
C      44.792100000000005     45.754150000000003     50.996849999999995
C      51.152600000000007     48.975549999999991     50.998350000000002
C      51.746099999999998     48.682549999999999     48.914150000000006
C      47.057400000000001     49.663049999999998     43.496350000000007
C      45.661400000000000     50.140250000000002     43.098349999999996
C      50.346800000000002     47.804949999999998     51.495750000000001
H      46.358800000000002     45.871549999999999     53.625150000000005
H      50.965999999999994     48.885449999999999     46.256150000000005
H      45.259699999999995     48.408850000000008     45.211349999999996
H      49.630399999999995     49.394649999999999     44.322050000000004
H      44.564899999999994     47.388350000000003     47.179450000000003
H      45.068600000000004     44.659750000000003     49.332350000000005
H      44.143299999999996     45.061149999999998     51.499950000000013
H      43.585099999999997     45.654850000000003     49.161749999999998
H      52.414900000000003     48.846750000000007     48.140050000000002
H      45.616000000000000     51.340249999999997     42.744150000000005
H      45.316699999999997     49.494650000000000     42.374849999999995
H      45.076599999999999     50.129550000000002     44.126050000000006
H      50.776200000000003     49.997149999999998     51.033750000000012
H      50.495000000000005     47.300950000000000     52.448750000000004
N      48.005099999999999     46.771450000000002     52.635150000000010
N      52.147900000000007     49.205150000000010     49.961650000000006
O      47.885000000000005     50.404450000000004     43.074749999999995
