5

C      48.121849999999995     48.202699999999986     48.018999999999991
H      48.984049999999996     48.515100000000004     47.324299999999994
H      47.015950000000004     48.387900000000002     47.679100000000005
H      48.195450000000008     47.014499999999998     48.415000000000006
H      48.143350000000012     48.985500000000002     48.675700000000006
