63

C      47.383199999999995     46.437899999999992     49.271984999999987
C      46.278100000000002     45.328900000000004     49.385185000000007
C      47.342500000000001     45.322400000000002     53.745985000000005
C      47.831000000000003     47.167500000000004     50.474585000000005
C      45.883800000000001     44.701300000000003     50.655285000000006
C      48.114000000000004     46.293399999999998     53.083584999999999
C      46.648800000000001     44.457599999999999     52.890785000000008
C      47.696899999999999     46.356200000000001     51.786085000000000
C      46.919500000000006     45.058000000000000     51.600885000000005
C      47.979399999999998     46.566000000000003     48.024585000000002
C      47.363600000000005     45.886399999999995     46.900184999999993
C      45.947300000000006     45.621600000000001     47.097984999999994
C      45.491700000000002     45.006200000000000     48.316384999999997
C      49.367900000000006     47.204200000000000     47.920085000000000
C      50.178800000000010     47.248199999999997     46.514785000000003
C      49.809600000000003     48.361000000000004     45.723884999999996
C      47.664400000000001     46.125699999999995     45.408985000000001
C      49.820000000000000     47.831000000000003     49.137685000000005
C      49.016900000000007     47.887299999999996     50.251085000000003
C      45.021400000000007     45.423199999999994     45.922285000000002
C      44.256000000000000     44.143599999999999     45.812785000000005
C      44.013700000000007     43.506900000000002     47.068884999999995
C      44.544000000000004     43.764600000000002     48.388985000000005
C      44.821300000000001     43.726900000000001     50.603585000000010
C      43.897500000000001     43.496600000000001     49.593684999999994
C      51.132099999999994     48.573200000000000     49.355784999999997
C      52.270099999999999     48.311700000000002     50.342785000000006
C      49.517000000000003     46.716700000000003     53.614684999999994
C      50.446399999999997     52.460899999999995     44.197284999999994
C      50.700300000000013     51.673400000000001     45.495485000000002
C      50.825000000000003     51.037700000000001     43.459284999999994
C      50.692200000000007     50.380799999999994     44.640685000000005
C      50.911800000000007     50.541299999999993     42.064914999999999
C      50.419000000000011     48.859400000000001     44.486784999999998
C      51.438000000000002     49.137900000000002     42.186445000000006
C      50.928500000000007     48.302999999999997     43.291584999999998
H      47.599100000000007     46.199100000000001     44.351185000000001
H      47.422600000000003     44.995800000000003     54.766485000000003
H      45.988700000000001     43.710999999999999     53.366585000000001
H      50.786000000000001     46.472899999999996     46.092785000000006
H      48.522800000000004     45.599000000000004     45.462384999999998
H      49.674599999999998     48.458900000000000     51.118684999999999
H      43.735000000000007     44.351799999999997     44.891985000000005
H      43.159000000000006     42.775999999999996     46.895984999999996
H      44.908400000000000     42.677700000000002     51.259384999999995
H      43.037800000000004     42.628000000000000     49.682585000000003
H      52.962199999999996     49.006999999999998     50.440084999999996
H      51.641900000000007     48.379099999999994     51.323584999999994
H      52.621000000000002     47.265199999999993     50.376185000000007
H      48.108500000000006     47.165599999999998     45.725885000000005
H      49.179500000000004     47.610100000000003     54.382885000000002
H      50.106800000000007     46.834800000000001     52.855485000000002
H      49.363500000000002     45.640699999999995     54.176185000000004
H      49.489400000000003     53.101399999999998     44.403284999999997
H      51.131700000000009     53.372000000000000     44.325585000000004
H      51.730100000000007     52.107100000000003     45.818385000000006
H      49.909200000000013     51.763300000000001     46.378685000000004
H      51.076700000000002     51.220100000000002     41.233514999999997
H      49.280500000000004     49.160100000000000     46.296984999999992
H      52.273600000000002     48.640900000000002     41.795644999999993
H      51.149100000000004     47.229799999999997     43.122105000000005
O      51.409200000000013     49.353200000000001     48.480585000000005
O      44.704300000000003     46.228700000000003     45.066284999999993
