6

C      48.003499999999995     48.330799999999989     47.479199999999992
C      47.930599999999998     47.577199999999998     48.503200000000000
H      47.474699999999999     47.815299999999993     46.546600000000005
H      48.535499999999999     49.471699999999998     47.570000000000000
H      48.273899999999998     48.145799999999994     49.453399999999995
H      47.464500000000001     46.528300000000002     48.569600000000001
