5

C      48.490549999999985     48.444749999999999     47.715249999999997
C      47.945250000000001     47.297150000000002     47.921449999999993
H      48.273849999999996     46.497550000000004     48.638649999999998
H      46.881349999999998     47.207650000000001     47.361350000000002
N      49.118650000000002     49.502449999999996     47.479550000000003
