18

C      46.929749999999999     47.632799999999989     50.443100000000001
C      49.596049999999991     46.825899999999990     48.300199999999990
C      46.836950000000002     47.068799999999996     49.033199999999994
C      48.716750000000005     47.774599999999992     47.691899999999990
C      47.240150000000000     47.779200000000003     47.691800000000001
C      49.070250000000001     48.891199999999998     46.819899999999990
C      46.442949999999996     48.195499999999996     46.706099999999992
C      48.254549999999995     49.389099999999999     45.729200000000006
C      46.928849999999997     49.120999999999995     45.692800000000005
H      46.931449999999998     46.749299999999991     51.168899999999994
H      47.361750000000001     48.614399999999989     50.676199999999994
H      49.106849999999994     46.039900000000003     48.991299999999995
H      50.685249999999996     46.836799999999997     48.292299999999997
H      46.128349999999998     45.908000000000001     49.427300000000002
H      50.135649999999998     49.249299999999991     46.683599999999998
H      45.314750000000004     47.915199999999999     46.456899999999990
H      48.858649999999997     50.091999999999999     45.172600000000003
H      46.187950000000001     49.302699999999987     44.831100000000006
