54

C      46.587849999999989     44.515549999999990     47.791249999999984
C      47.162649999999999     45.256950000000003     48.948549999999997
C      50.843850000000003     50.086950000000002     50.581049999999991
C      50.655850000000001     48.778649999999999     50.924149999999997
C      47.022450000000006     45.013950000000008     46.535249999999991
C      50.663850000000011     51.008550000000014     44.106949999999998
C      47.915649999999999     46.422550000000001     48.869050000000001
C      51.084249999999997     50.768050000000002     49.317349999999990
C      50.304749999999999     48.071250000000006     49.730049999999991
C      51.032849999999996     51.587750000000014     46.381450000000001
C      50.188749999999999     48.774950000000004     43.293749999999989
C      49.480450000000005     47.622349999999997     43.680449999999993
C      48.160049999999998     46.273949999999999     45.028149999999997
C      50.441950000000006     49.528649999999999     44.394949999999994
C      48.052549999999997     45.985349999999997     46.428950000000000
C      49.123149999999995     47.207150000000013     44.927149999999997
C      48.643550000000005     46.648049999999998     47.650949999999995
C      50.457650000000001     50.001550000000009     48.273150000000001
C      50.398949999999999     50.426650000000009     46.848349999999996
C      50.136250000000004     48.607849999999999     48.527649999999994
C      50.178250000000006     49.293750000000003     45.801549999999992
C      49.579750000000004     48.120150000000010     46.159649999999999
C      49.459950000000006     47.796650000000014     47.522549999999995
C      51.667550000000006     52.078749999999999     48.741949999999989
C      51.563749999999999     52.420850000000002     47.475949999999997
C      45.520150000000001     43.473750000000010     47.669449999999998
C      44.934049999999999     43.317450000000008     48.973649999999992
C      45.161249999999995     44.106850000000009     50.134549999999990
C      46.294650000000004     44.967849999999999     50.113749999999996
C      46.708449999999999     45.910550000000001     51.236149999999995
C      45.706149999999994     46.973350000000011     51.686949999999996
C      45.565550000000002     47.797049999999999     52.996449999999996
H      45.036050000000003     48.631250000000009     52.928749999999994
H      51.209450000000004     50.861649999999997     51.328350000000000
H      51.005549999999999     48.322550000000007     51.784749999999988
H      46.735150000000004     44.553650000000005     45.500249999999994
H      50.411450000000002     51.501450000000006     43.110450000000000
H      47.924049999999994     47.190650000000005     49.649149999999992
H      50.209649999999996     49.181150000000002     42.214449999999999
H      48.930350000000004     47.071849999999998     42.955050000000000
H      47.495949999999993     45.947250000000011     44.107050000000001
H      52.017250000000004     52.930750000000003     49.414749999999998
H      51.712850000000003     53.436650000000000     47.355249999999998
H      45.109949999999998     42.659649999999999     46.912049999999994
H      43.982749999999996     42.563350000000000     49.049250000000001
H      45.111450000000005     43.588250000000002     51.142949999999999
H      44.696650000000005     46.446750000000009     51.325749999999999
H      45.717050000000000     47.635149999999996     50.938850000000002
H      49.653250000000000     45.665450000000007     50.147349999999989
H      45.223950000000002     47.009450000000001     53.785550000000001
H      46.537450000000007     48.398750000000007     53.332149999999999
N      50.987150000000000     51.849450000000004     44.970050000000001
O      47.334249999999997     45.450350000000000     52.151949999999999
S      50.808650000000000     46.254550000000009     49.742750000000001
