6

C      47.393464999999992     47.462349999999994     48.101423999999987
C      48.524535000000000     48.235050000000001     47.849323999999996
H      46.990625000000001     46.806250000000006     47.338324000000000
H      47.166345000000000     47.495850000000004     49.135875999999996
H      48.872184999999995     49.193749999999994     48.243123999999995
H      49.009374999999999     48.062950000000001     46.864124000000004
