37

C      49.563900000000004     45.305934999999991     50.073499999999996
C      50.609700000000011     45.895335000000010     51.043299999999988
C      47.289600000000000     47.663035000000001     47.545600000000007
C      48.719799999999999     45.922635000000007     49.271699999999996
C      46.979599999999998     46.179035000000006     47.446399999999997
C      47.572499999999998     45.302235000000003     48.440899999999999
C      45.748300000000008     45.556035000000001     46.922700000000006
C      47.066600000000001     43.961035000000003     48.579300000000003
C      45.243299999999998     44.260235000000002     47.074900000000000
C      45.968300000000006     43.460635000000003     48.020700000000005
C      46.371200000000009     48.488149000000014     46.555900000000008
C      48.748100000000001     50.180335000000007     45.491799999999998
C      46.828000000000010     49.935165000000012     46.857399999999998
C      48.029100000000007     50.592405000000021     46.354200000000006
C      45.914000000000009     50.708665000000018     47.588400000000007
C      48.120100000000001     51.991525000000003     46.569100000000006
C      46.153600000000004     51.988665000000012     48.244200000000006
C      47.273100000000007     52.543545000000016     47.580600000000004
H      46.524900000000009     47.570835000000010     45.585800000000006
H      48.409300000000009     46.979935000000005     49.277600000000007
H      49.878700000000002     44.262435000000004     49.900400000000005
H      50.271500000000010     46.943235000000008     51.355100000000007
H      51.599899999999998     45.749935000000001     50.708600000000004
H      46.757200000000005     48.019835000000008     48.522199999999998
H      48.283000000000008     47.760335000000005     47.041300000000007
H      50.436200000000007     45.063234999999999     51.694199999999995
H      45.039400000000008     46.171035000000010     46.367800000000003
H      47.564600000000006     43.446135000000005     49.514099999999999
H      44.400100000000002     43.889935000000001     46.604900000000001
H      45.476900000000008     42.537534999999998     47.982200000000006
H      45.254600000000003     48.506035000000011     46.741200000000006
H      48.674200000000006     49.062585000000020     45.306899999999999
H      49.022100000000002     50.866355000000006     44.305800000000005
H      45.204900000000002     49.893975000000019     48.121399999999994
H      48.641700000000007     52.589635000000008     45.805400000000006
H      45.689100000000003     52.602345000000014     48.914299999999997
H      48.018400000000007     53.462465000000002     48.010599999999997
