37

C      51.235549999999996     44.391937999999996     47.609899999999996
C      50.037649999999999     44.631538000000006     47.241599999999998
C      47.686149999999998     46.546238000000002     46.616199999999999
C      48.738350000000004     44.718237999999999     47.937300000000000
C      47.521950000000004     45.451537999999999     47.576400000000000
C      48.577849999999998     44.111838000000006     49.268300000000004
C      46.201050000000002     45.039138000000008     48.180200000000006
C      47.337750000000000     43.871138000000002     49.831700000000005
C      46.092950000000002     44.265438000000003     49.462100000000000
C      45.554050000000004     47.717138000000006     47.423800000000007
C      44.524650000000001     47.015737999999999     46.930399999999999
C      45.950950000000006     49.129538000000011     46.889599999999994
C      48.735849999999999     47.495338000000004     46.904199999999996
C      47.405749999999998     49.571938000000003     46.684800000000003
C      48.651049999999998     48.848737999999997     46.267800000000001
C      47.510150000000003     50.744138000000007     45.967300000000002
C      49.761450000000004     49.306138000000004     45.616300000000003
C      48.721450000000004     51.514538000000002     45.932099999999998
C      49.816850000000002     50.676938000000007     45.708900000000007
H      45.459750000000000     49.293137999999999     45.872899999999994
H      52.056449999999998     44.589438000000001     46.933100000000003
H      51.603149999999999     43.778238000000002     48.657299999999999
H      49.923250000000003     45.314638000000002     46.336800000000004
H      47.007050000000007     47.305937999999998     46.206799999999994
H      49.507649999999998     43.905138000000008     49.752199999999995
H      45.338250000000002     45.036338000000001     47.570500000000003
H      47.528850000000006     43.295237999999998     50.768999999999998
H      45.442850000000007     44.369538000000006     50.359500000000004
H      45.711750000000002     47.325637999999998     48.410000000000004
H      44.010050000000007     47.421537999999998     45.952999999999996
H      43.943550000000002     46.388638000000000     47.469100000000005
H      45.599450000000004     49.754238000000001     47.749699999999997
H      49.000050000000002     47.819438000000005     47.825099999999999
H      46.769250000000000     51.308937999999998     45.796100000000003
H      50.675350000000002     48.622838000000002     45.231000000000002
H      48.773350000000008     52.704762000000002     45.800800000000002
H      50.878450000000001     51.052638000000002     45.270699999999998
