6

C      48.113899999999987     48.552799999999991     47.769500000000001
C      48.168999999999997     47.574200000000005     48.712800000000001
H      47.369600000000005     49.386799999999994     47.707599999999999
H      48.683400000000006     48.069100000000006     46.830100000000002
H      48.653899999999993     46.613200000000006     48.772100000000009
H      47.316599999999994     47.778899999999993     49.169899999999998
