5

C      48.011899999999983     48.363749999999996     48.061849999999986
H      47.911099999999998     47.181950000000001     47.900250000000000
H      48.935200000000002     48.626649999999998     48.741849999999999
H      47.064799999999998     48.818049999999999     48.051749999999998
H      48.728299999999997     48.667749999999998     47.258150000000001
