66

C      47.053499999999993     50.729349999999990     45.083199999999991
C      48.373699999999999     51.282950000000000     44.804600000000001
C      49.398200000000003     46.502049999999997     45.201799999999999
C      50.649999999999999     46.936949999999996     44.633899999999997
C      46.857399999999998     49.274749999999997     45.395400000000002
C      49.627000000000010     50.496449999999996     44.896599999999999
C      48.053700000000006     47.086349999999996     45.374800000000000
C      50.526800000000001     48.295549999999992     44.455999999999996
C      48.009500000000003     48.486149999999995     45.291999999999994
C      49.367300000000000     49.029749999999993     44.989899999999999
C      46.186999999999998     51.661649999999995     45.657499999999992
C      46.528700000000001     53.002949999999998     45.424500000000002
C      47.653900000000000     53.439849999999993     44.610599999999998
C      48.791899999999998     52.678550000000001     44.677999999999997
C      49.383800000000001     45.022149999999996     45.380999999999993
C      50.600899999999996     44.323849999999993     45.061199999999999
C      51.903199999999998     44.820549999999997     44.722000000000001
C      51.925899999999999     46.190150000000003     44.422899999999998
C      44.816000000000003     51.288349999999994     46.045200000000001
C      43.724699999999999     52.260549999999995     46.013399999999997
C      44.106900000000003     53.621749999999992     45.731299999999997
C      45.436199999999999     53.985150000000004     45.645699999999998
C      45.551000000000002     49.048850000000002     45.915399999999998
C      44.506200000000000     49.938549999999992     46.286899999999996
C      50.991399999999999     50.868250000000003     45.369099999999996
C      50.757000000000005     42.770349999999993     45.124100000000006
C      46.832999999999998     46.204250000000002     45.255499999999991
C      50.418100000000010     42.159649999999999     46.527299999999997
C      48.353399999999993     44.114350000000002     48.327399999999990
C      51.619299999999996     42.205249999999992     47.444700000000005
C      49.627099999999999     44.405950000000004     48.228699999999996
C      51.251200000000004     42.445650000000001     48.967199999999998
C      50.560900000000004     43.707449999999994     49.204299999999996
C      52.128799999999998     42.035749999999993     50.003399999999992
C      50.831200000000003     44.641849999999991     50.197399999999995
C      52.574600000000004     43.102949999999993     51.009399999999999
C      51.849299999999999     44.245949999999993     51.035100000000000
H      51.256500000000003     48.939849999999993     44.038300000000000
H      47.791899999999998     54.608949999999993     44.365099999999998
H      49.781199999999998     53.009649999999993     44.422599999999996
H      48.462299999999999     44.477750000000000     45.866899999999994
H      52.723699999999994     44.209549999999993     44.414299999999997
H      52.853299999999990     46.708849999999998     44.325499999999998
H      42.804900000000004     52.019949999999994     46.424199999999992
H      43.436999999999998     54.328850000000003     45.234999999999992
H      45.721800000000002     55.128950000000003     45.574900000000007
H      43.446100000000001     49.784949999999995     45.978400000000001
H      45.213999999999999     48.117049999999992     46.169599999999996
H      51.448900000000002     49.866050000000001     45.828200000000002
H      51.608999999999995     42.263849999999991     44.810799999999993
H      49.904400000000010     42.615849999999995     44.434500000000000
H      45.908300000000004     45.993749999999991     45.716299999999997
H      46.567000000000000     46.160449999999997     44.216099999999997
H      47.414599999999993     45.213650000000001     45.148999999999994
H      49.582200000000000     42.658549999999991     47.011699999999998
H      50.183599999999998     40.871049999999997     46.383800000000001
H      48.110500000000002     43.292749999999998     49.040599999999998
H      47.574199999999998     44.566050000000004     47.619300000000003
H      52.200600000000009     41.218750000000000     47.295299999999997
H      52.491000000000000     42.825350000000000     47.148199999999996
H      49.570799999999991     45.426149999999993     47.772200000000005
H      52.525899999999993     41.189449999999994     49.633100000000006
H      50.576100000000011     45.672749999999994     50.136000000000003
H      53.195099999999996     42.792549999999991     51.961700000000000
H      52.338200000000001     45.172349999999994     51.392899999999990
O      51.521999999999998     51.938549999999992     45.451400000000000
