46

C      46.923684999999992     49.925849999999997     48.978999999999992
C      46.473834999999994     50.006650000000000     50.444199999999995
C      47.179804999999988     48.763750000000002     48.429299999999998
C      46.145184999999998     48.814750000000004     51.146400000000000
C      48.194574999999986     43.807549999999999     49.241200000000006
C      47.243065000000001     46.200550000000000     48.662599999999998
C      46.357484999999997     46.218850000000003     51.428500000000000
C      46.908644999999993     47.550350000000002     49.220299999999995
C      46.459504999999993     47.528950000000002     50.678299999999993
C      47.615794999999991     45.027050000000003     49.598200000000006
C      47.457674999999995     45.245150000000002     51.008200000000002
C      46.855244999999996     51.003349999999990     48.054599999999994
C      46.442385000000002     52.197250000000004     48.780400000000000
C      46.178314999999998     52.453150000000001     50.217900000000000
C      45.868844999999993     51.251849999999997     50.750100000000003
C      47.661344999999997     50.958950000000002     46.908799999999999
C      48.128194999999991     52.092649999999999     46.281800000000004
C      47.424124999999989     53.306550000000001     46.693299999999994
C      46.479844999999997     53.320650000000001     47.724699999999999
C      47.787204999999986     49.671750000000003     46.256500000000003
C      47.557194999999993     48.572850000000003     46.991500000000002
C      47.782764999999998     47.191850000000002     46.397800000000004
C      47.853404999999995     46.250950000000003     47.487399999999994
C      49.236664999999988     52.119750000000003     45.143199999999993
C      49.241624999999999     51.100250000000003     44.088399999999993
C      50.195664999999991     50.305650000000007     43.763400000000004
C      48.182135000000002     42.804349999999999     50.121200000000002
H      48.474654999999998     43.740349999999999     48.275099999999995
H      48.230954999999994     45.022950000000002     51.813999999999993
H      45.465604999999996     46.247250000000001     52.089100000000002
H      45.363095000000001     51.468449999999997     51.742900000000006
H      47.915954999999997     54.259650000000001     46.228700000000003
H      45.870075000000000     54.269050000000000     47.979500000000002
H      48.412334999999999     49.609349999999999     45.417500000000004
H      47.796854999999994     47.124050000000004     45.352999999999994
H      48.394295000000000     45.203550000000000     47.235299999999995
H      48.248724999999993     50.858550000000001     43.749600000000001
H      45.348145000000002     53.736049999999999     51.501599999999996
H      45.193735000000004     48.879550000000002     52.953699999999998
H      51.010964999999999     49.984650000000009     44.225200000000001
H      50.071764999999999     49.611950000000000     43.046300000000002
H      48.588394999999991     41.730950000000000     49.845900000000000
H      47.806574999999995     42.942250000000001     51.025899999999993
O      49.942464999999999     53.056249999999999     44.971699999999998
O      46.037265000000005     53.656450000000000     50.757099999999994
O      44.989035000000001     48.962850000000003     51.998300000000000
