34

C      50.903349999999989     46.666150000000002     48.228799999999993
C      50.879149999999996     48.224650000000004     48.002200000000002
C      42.699449999999999     48.629849999999998     48.082800000000006
C      49.730549999999994     45.925450000000005     48.344300000000004
C      49.629249999999999     48.860750000000003     47.789900000000003
C      43.601250000000007     47.853050000000003     48.698899999999995
C      45.716149999999999     50.443450000000006     47.363000000000000
C      46.991150000000005     49.979649999999999     47.292800000000000
C      47.461150000000004     45.835050000000003     48.807900000000004
C      44.678049999999999     49.661350000000006     48.006299999999996
C      48.498450000000005     46.647950000000002     48.450900000000004
C      44.946250000000006     48.565550000000009     48.634999999999991
C      48.380849999999995     47.938949999999998     47.765299999999996
C      47.231949999999998     48.645550000000007     47.897000000000006
C      46.305850000000007     48.044450000000005     48.882400000000004
C      49.259850000000000     50.033050000000010     47.011099999999999
C      52.269250000000000     46.268549999999998     48.546700000000001
C      53.385750000000002     47.008050000000004     48.821600000000004
C      53.461550000000003     48.328450000000011     48.527900000000002
C      52.133949999999999     48.839950000000009     48.141099999999994
C      46.418050000000008     46.679050000000011     49.230599999999995
H      49.674149999999997     44.886249999999997     48.626199999999997
H      41.666449999999998     48.608750000000008     47.666499999999999
H      43.347149999999999     46.895950000000006     49.152599999999993
H      45.469549999999998     51.307650000000002     46.598200000000006
H      50.137850000000000     50.541550000000008     46.748000000000005
H      52.331150000000008     45.208950000000009     48.612600000000000
H      54.333550000000002     46.737150000000007     49.312399999999997
H      54.211350000000010     48.943550000000009     49.023899999999998
H      52.172050000000013     49.863350000000004     47.933999999999997
H      47.378150000000005     44.692349999999998     48.932999999999993
H      45.394050000000007     46.283850000000008     49.401799999999994
N      43.357650000000007     49.639350000000000     47.647499999999994
N      48.078649999999996     50.594749999999998     46.798199999999994
