6

C      48.235315000000000     48.749499999999998     47.775949999999987
C      47.785325000000000     47.657100000000000     48.154550000000000
H      47.364135000000005     49.434399999999997     47.413049999999998
H      49.059174999999996     48.818699999999993     47.115949999999998
H      48.366884999999996     46.565600000000003     48.375949999999989
H      46.940825000000004     47.518299999999996     48.884050000000002
