6

C      48.134099999999989     47.511994999999999     47.407199999999989
C      47.944099999999992     48.531205000000007     48.406900000000000
H      48.157899999999991     48.022145000000002     46.574700000000000
H      48.434400000000004     46.533255000000004     47.642999999999994
H      47.565599999999996     48.490485000000007     49.425300000000000
H      47.740299999999991     49.466744999999996     47.957500000000003
