5

C      48.187124999999995     48.132699999999993     47.736449999999991
H      48.522314999999999     48.439499999999995     48.700449999999996
H      48.883724999999998     48.864199999999997     47.314349999999997
H      47.116275000000002     48.452799999999996     47.616449999999993
H      48.420074999999997     47.135800000000003     47.299550000000004
