22

C      48.268499999999996     48.614099999999993     48.235249999999994
C      48.276200000000003     49.356800000000000     47.042549999999999
C      47.890400000000000     48.798400000000001     45.844749999999998
C      47.701400000000007     47.444600000000001     45.785249999999998
C      47.846800000000002     46.671999999999997     47.013050000000000
C      48.040000000000006     47.191899999999997     48.311349999999997
C      48.609200000000001     49.309800000000003     49.580149999999996
C      47.485399999999998     50.046700000000001     50.320450000000001
H      46.606999999999999     50.259900000000002     49.561650000000007
H      47.237499999999997     49.473399999999991     51.227550000000001
H      47.831699999999998     51.128300000000003     50.485250000000001
H      48.626599999999996     47.088799999999999     50.344549999999998
H      46.313400000000001     50.078600000000002     45.089649999999999
H      48.421599999999998     51.121199999999995     46.364049999999999
H      46.229799999999997     46.418399999999998     44.937550000000002
H      48.073400000000007     44.871699999999997     47.621650000000002
O      49.770200000000003     49.036400000000008     49.776050000000005
O      48.267600000000002     46.615600000000001     49.548650000000002
O      47.242800000000003     49.655799999999992     45.015949999999997
O      48.376700000000000     50.762800000000006     47.218849999999996
O      47.674700000000001     45.350699999999996     46.775849999999998
O      46.810000000000002     47.217700000000001     44.772449999999999
