5

C      47.899099999999997     48.079749999999990     48.064049999999995
H      47.421000000000006     47.101650000000006     47.599550000000008
H      47.339100000000002     48.898349999999994     48.666849999999997
H      48.660899999999998     47.688249999999996     48.738950000000003
H      48.593700000000013     48.434150000000002     47.261049999999997
