19

C      48.567299999999996     47.134299999999989     45.692899999999995
C      49.702500000000001     49.266099999999994     46.271599999999999
C      47.423800000000000     46.525800000000004     46.147799999999997
C      48.796300000000002     48.126000000000005     46.692600000000006
C      47.199400000000004     46.821100000000001     47.563200000000002
C      47.990800000000000     47.989599999999996     47.836400000000005
C      45.997600000000006     46.513700000000000     48.365199999999994
C      48.010800000000003     48.609999999999999     49.185700000000004
C      46.286100000000005     46.927700000000002     49.655300000000004
C      47.266200000000005     47.892600000000002     50.071800000000003
H      49.346700000000013     46.999700000000004     44.856900000000003
H      49.231200000000001     50.249899999999997     46.889299999999999
H      50.763900000000000     49.024500000000003     46.538400000000003
H      49.741000000000000     49.901300000000006     45.203700000000005
H      47.028100000000002     45.750100000000003     45.448900000000002
H      45.236100000000000     45.856300000000005     47.988300000000002
H      48.605500000000006     49.475800000000007     49.278399999999998
H      45.470400000000005     46.673900000000003     50.339199999999998
H      47.294900000000005     48.350899999999996     51.143099999999997
