9

C      47.328600000000002     48.507849999999991     48.427250000000001
C      48.673800000000000     48.340150000000001     47.578250000000004
H      48.425600000000003     46.807449999999996     48.403750000000009
H      47.235500000000002     48.642249999999997     49.489049999999999
H      46.612600000000000     49.192550000000004     47.917650000000002
H      48.488900000000001     48.772749999999995     46.510950000000001
H      49.387400000000000     49.115450000000003     47.936150000000005
H      46.682699999999997     47.543249999999993     48.491750000000003
O      49.197200000000009     47.037450000000000     47.743850000000002
