9

C      47.900100000000002     48.964189999999995     48.732649999999992
C      48.175600000000003     48.036400000000000     47.514350000000000
C      47.999000000000009     46.685060000000000     47.862549999999992
H      47.205100000000002     48.412670000000006     49.448150000000005
H      47.560500000000005     50.028549999999996     48.430050000000001
H      48.794899999999998     48.926010000000005     49.474049999999998
H      48.305900000000008     48.533730000000006     46.525950000000002
H      47.239200000000011     45.971450000000004     47.482449999999993
H      48.746800000000007     46.085250000000002     47.303850000000004
