22

C      48.720099999999988     49.738899999999994     46.582699999999996
C      47.876500000000007     48.829200000000000     45.813200000000002
C      48.404600000000002     49.922299999999993     48.082000000000001
C      47.417000000000002     47.414699999999996     46.436399999999999
C      48.428100000000001     48.469999999999999     48.504400000000004
C      47.640100000000004     47.332499999999996     47.924400000000006
C      48.909900000000007     48.463499999999996     49.884500000000003
C      47.382700000000000     46.061099999999996     48.656700000000001
C      48.445300000000003     47.261899999999997     50.486999999999995
C      47.621700000000004     46.210999999999999     49.992300000000000
H      49.023600000000002     50.724900000000005     45.959899999999998
H      49.672300000000007     49.252700000000004     46.846900000000005
H      47.909199999999998     48.800100000000000     44.606999999999999
H      47.015400000000000     49.459000000000003     45.585400000000000
H      49.340400000000002     50.259799999999998     48.458800000000011
H      47.271500000000003     50.608199999999997     48.161600000000000
H      47.777400000000000     46.501899999999992     45.725200000000001
H      46.190799999999996     47.250699999999995     46.533200000000001
H      49.809200000000004     48.990300000000005     50.258900000000004
H      46.525599999999997     45.275099999999995     48.217200000000005
H      49.240200000000002     47.186499999999995     51.393000000000001
H      47.813900000000004     45.339200000000005     50.695500000000003
