22

C      46.679749999999999     46.224099999999993     49.241199999999992
C      47.629950000000001     45.455500000000001     48.338899999999995
C      46.156550000000003     47.489699999999999     48.591700000000003
C      48.062750000000001     46.025100000000002     46.977699999999999
C      47.252350000000000     48.307399999999994     47.808700000000002
C      48.336149999999996     47.606800000000000     47.309799999999996
C      47.204649999999994     49.735199999999999     47.915700000000001
C      49.623650000000005     48.089999999999996     47.160799999999995
C      48.557650000000002     50.284700000000008     47.822800000000001
C      49.655149999999999     49.499400000000001     47.427099999999996
H      47.009449999999994     46.762800000000006     50.140000000000001
H      45.916850000000004     45.479900000000001     49.491699999999994
H      47.010950000000001     44.552900000000001     48.139099999999999
H      48.460550000000005     44.792899999999996     48.792299999999997
H      45.434949999999994     48.133900000000004     49.213999999999999
H      45.672050000000006     47.272299999999994     47.657299999999992
H      48.140350000000005     45.902499999999996     45.859999999999999
H      49.208549999999995     45.572300000000006     46.936300000000003
H      46.028449999999999     50.272700000000000     48.081400000000002
H      50.494149999999998     47.459899999999998     46.599699999999999
H      48.654350000000001     51.447099999999999     47.663199999999989
H      50.565050000000006     50.088799999999999     47.586500000000001
