35

C      47.925399999999996     49.867199999999990     52.674299999999995
C      45.997100000000003     50.426100000000005     50.587199999999996
C      46.988500000000002     50.526799999999994     47.833199999999991
C      47.163100000000000     50.150800000000004     50.361399999999989
C      47.680399999999992     50.104199999999992     49.005899999999997
C      47.974000000000004     49.417900000000003     51.380099999999999
C      49.167999999999992     49.835799999999992     48.852099999999993
C      49.562600000000003     49.071600000000004     51.408699999999996
C      49.840299999999999     49.076399999999992     49.954599999999999
C      48.048000000000002     49.010000000000005     43.569299999999998
C      47.352000000000004     50.284800000000004     46.376099999999994
C      47.757099999999994     48.105400000000003     44.828699999999998
C      47.511799999999994     48.679699999999997     46.074900000000000
C      47.827500000000001     46.712900000000005     44.455900000000000
C      47.510700000000000     47.712199999999996     47.061199999999999
C      47.918599999999998     45.864300000000000     45.554999999999993
C      47.784499999999994     46.337000000000003     46.937199999999990
H      47.121600000000001     49.542000000000002     53.414299999999997
H      48.742300000000000     49.721400000000003     53.214900000000000
H      45.435400000000001     50.593099999999993     51.473399999999998
H      45.587599999999995     51.265000000000001     49.967399999999998
H      47.647300000000001     48.420199999999994     42.585700000000003
H      46.594999999999999     50.810100000000006     45.580900000000000
H      50.118099999999998     50.143599999999992     51.886200000000002
H      49.904399999999995     49.990700000000004     47.948399999999992
H      49.695799999999991     48.052499999999995     51.674700000000001
H      50.564599999999999     48.501499999999993     49.423099999999991
H      47.643199999999993     50.144199999999998     43.674499999999995
H      49.179099999999991     48.804800000000000     43.647799999999989
H      48.464600000000004     50.649500000000003     46.116299999999995
H      46.003100000000003     51.095299999999995     47.832200000000000
H      47.356200000000001     46.456299999999999     43.373800000000003
H      47.502600000000001     48.161699999999996     48.060000000000002
H      47.899699999999996     44.734999999999999     45.172600000000003
H      47.917299999999997     45.701300000000003     47.855399999999989
