22

C      46.921450000000000     48.003493499999990     45.664499999999997
C      47.460550000000012     49.403183499999997     46.068700000000007
C      48.173050000000003     47.057613499999995     46.060400000000001
C      46.989150000000009     49.462913499999992     47.541800000000009
C      48.559650000000005     47.395943500000001     47.539400000000001
C      47.762450000000015     48.292693499999992     48.172200000000004
C      49.339250000000007     46.458973499999999     48.143600000000006
C      47.945950000000011     48.316803499999999     49.592700000000008
C      49.338850000000008     46.440355499999995     49.475800000000007
C      48.482650000000007     47.186233500000000     50.423299999999998
H      46.029450000000011     47.867303499999998     46.334299999999999
H      46.822950000000006     47.971813499999996     44.545800000000000
H      48.599550000000008     49.706233499999996     45.801999999999992
H      46.918150000000011     50.109713500000005     45.340299999999999
H      47.382050000000007     45.975023499999999     45.765400000000000
H      48.907850000000010     46.963773499999995     45.206299999999999
H      45.960250000000002     49.390493499999998     47.410600000000002
H      47.065449999999998     50.272393500000000     48.044200000000004
H      50.039749999999998     45.727606500000000     47.415800000000004
H      47.224650000000011     49.121533499999991     50.045299999999997
H      49.997850000000007     45.729058500000001     49.854100000000003
H      48.787350000000004     46.859993499999995     51.454200000000000
