6

C      48.453449999999989     48.015050000000002     47.522250000000000
C      47.738750000000003     47.843850000000003     48.509050000000009
H      48.399049999999995     47.797350000000009     46.431249999999999
H      49.209949999999999     48.770650000000003     47.684950000000008
H      48.104350000000004     47.931650000000005     49.568750000000001
H      46.790050000000001     47.229349999999997     48.322949999999999
