16

C      47.139849999999996     45.756450000000001     48.167549999999991
C      46.262650000000001     48.026550000000000     46.309050000000006
C      47.695150000000005     47.103250000000003     48.201550000000005
C      47.368749999999999     48.102550000000008     47.210750000000004
C      48.552749999999996     47.405050000000003     49.306450000000005
C      48.026950000000006     49.338750000000005     47.433050000000001
C      49.353550000000006     48.564850000000007     49.402049999999996
C      48.895150000000008     49.666049999999998     48.586549999999995
H      46.464750000000002     45.378150000000005     47.256050000000002
H      46.749549999999999     45.810549999999992     49.191050000000011
H      46.297049999999999     47.236149999999995     45.517749999999999
H      46.130549999999999     48.949050000000000     45.972050000000003
H      48.641750000000002     46.487349999999992     49.816549999999999
H      48.013750000000002     50.133049999999997     46.537550000000003
H      49.869450000000001     48.662450000000007     50.482250000000001
H      49.472450000000002     50.621849999999995     48.661349999999999
