52

C      47.240249999999989     46.945399999999992     47.153444999999991
C      46.987349999999999     46.206500000000005     48.431545000000000
C      49.120449999999998     50.373699999999999     49.959905000000006
C      48.098750000000003     50.042000000000002     50.920315000000002
C      47.563449999999996     48.260500000000008     47.071235000000001
C      46.519550000000002     47.033400000000000     49.435575000000000
C      48.885150000000003     49.909599999999998     48.577365000000000
C      47.188350000000007     48.938000000000002     50.785695000000004
C      47.786049999999996     49.104000000000013     48.343975000000000
C      47.082450000000001     48.393500000000003     49.481245000000001
C      47.300450000000005     45.893799999999999     46.094025000000002
C      46.822049999999997     44.646699999999996     46.431404999999998
C      46.528950000000002     43.956199999999995     47.660304999999994
C      46.767950000000006     44.769599999999997     48.789615000000012
C      49.866049999999994     51.532500000000013     50.303465000000003
C      49.300050000000006     52.356300000000005     51.253484999999998
C      48.279050000000005     52.058900000000008     52.199725000000001
C      47.773249999999997     50.787300000000002     52.079325000000011
C      47.558749999999996     46.403499999999994     44.731035000000006
C      47.578849999999996     45.396100000000004     43.806115000000005
C      46.932449999999996     43.762799999999999     45.332485000000005
C      47.832649999999994     48.920800000000000     45.744754999999998
C      48.206650000000003     47.770300000000006     44.654484999999994
C      46.147050000000000     46.523099999999999     50.812174999999996
C      47.089149999999997     44.489800000000002     50.276274999999998
C      49.973250000000000     50.143400000000000     47.546274999999994
C      47.817050000000002     48.286000000000001     43.218864999999994
C      45.640949999999997     45.078500000000005     50.786785000000009
H      46.875049999999995     48.535200000000003     51.685924999999997
H      46.587650000000004     42.885300000000001     48.109645000000000
H      50.647849999999998     51.794600000000003     49.491775000000004
H      49.677950000000003     53.268500000000003     51.297565000000006
H      47.904450000000004     52.809399999999997     52.849725000000007
H      47.906050000000000     45.359399999999994     42.772054999999995
H      47.159250000000007     42.731499999999997     45.552745000000002
H      46.888749999999995     49.635000000000005     45.675134999999997
H      48.523750000000000     49.910200000000003     45.648195000000001
H      49.176650000000002     47.794799999999995     44.852834999999999
H      45.192450000000001     47.308099999999996     51.141335000000012
H      47.300350000000002     43.424499999999995     50.436374999999998
H      49.353450000000002     50.847700000000003     46.975305000000006
H      45.726350000000004     49.973400000000012     52.368724999999998
H      46.960150000000006     47.808000000000007     42.725925000000004
H      48.567349999999998     47.628799999999998     42.572074999999998
H      47.553149999999995     49.342700000000008     43.227985000000004
H      44.827249999999999     45.027299999999997     50.048005000000003
H      45.291450000000005     44.508600000000001     51.693025000000006
H      46.783549999999998     46.708299999999994     51.567724999999996
H      47.777350000000006     45.271100000000004     50.458155000000005
N      47.023450000000004     44.254900000000006     44.062475000000006
O      51.172750000000001     50.277700000000010     47.573485000000005
S      46.637850000000007     50.211799999999997     53.427925000000002
