6

C      47.835999999999999     48.243549999999999     48.555549999999990
C      47.764899999999997     47.939149999999998     47.318950000000001
H      47.394999999999996     47.579849999999993     49.442250000000001
H      48.698099999999997     49.030349999999999     49.010849999999998
H      48.031899999999993     48.712349999999986     46.557749999999999
H      47.301900000000003     46.969650000000001     46.954050000000002
