19

C      45.549799999999998     46.598449999999993     48.029249999999998
C      46.704499999999996     46.550750000000001     47.608049999999999
C      49.453900000000004     45.937150000000003     47.138650000000005
C      47.838900000000002     47.428250000000006     47.907150000000001
C      49.133099999999999     47.427650000000000     47.503650000000000
C      47.510200000000005     48.462750000000000     48.925749999999994
C      50.202600000000004     48.210949999999997     48.049150000000004
C      48.499000000000002     49.494550000000004     49.152550000000005
C      49.925299999999993     49.453850000000003     48.805550000000004
H      44.721000000000004     47.189549999999997     47.429950000000005
H      45.429200000000002     46.811650000000000     49.158249999999995
H      49.966600000000000     45.992150000000002     46.134850000000000
H      48.621899999999997     45.382050000000000     47.222650000000002
H      46.563500000000005     48.711849999999998     49.402950000000004
H      46.808700000000002     45.804950000000005     46.731650000000002
H      50.366800000000012     45.375050000000002     47.694150000000000
H      51.278999999999996     48.005549999999999     47.759350000000005
H      48.407600000000002     50.378749999999997     49.865150000000000
H      50.548100000000005     50.624949999999998     48.990850000000009
