53

C      48.847094999999996     48.500949999999989     49.007449999999992
C      47.438395000000000     48.788450000000005     48.418849999999999
C      47.192495000000001     44.166149999999995     47.226049999999994
C      49.118194999999993     47.204150000000006     49.025449999999999
C      46.660195000000002     47.992250000000006     47.467349999999996
C      48.105395000000001     44.854549999999996     48.253449999999994
C      46.554895000000002     45.312649999999998     46.955149999999996
C      48.267195000000001     46.279850000000003     48.185549999999999
C      47.134295000000002     46.631350000000005     47.374749999999999
C      49.850194999999992     49.308649999999993     49.722649999999994
C      49.408795000000005     50.740149999999993     49.811949999999996
C      47.941395000000000     51.123550000000002     49.409150000000004
C      47.240095000000004     50.120650000000005     48.672749999999994
C      51.072894999999995     48.755249999999997     50.254049999999999
C      52.147695000000006     49.741850000000007     50.436450000000001
C      51.874095000000004     51.187149999999995     50.199349999999988
C      50.507595000000002     51.573450000000001     50.039549999999998
C      51.402495000000009     47.336250000000000     50.133450000000003
C      50.502295000000011     46.606150000000007     49.347450000000002
C      50.597195000000006     45.173449999999995     48.865349999999999
C      49.197095000000004     44.206949999999999     49.013449999999999
C      52.728895000000001     46.676350000000006     50.388950000000001
C      47.367995000000001     52.211149999999996     50.074350000000003
C      46.759995000000004     50.138749999999995     45.637149999999998
C      45.337274999999998     48.428649999999998     46.892549999999993
C      45.297445000000003     49.815249999999999     46.027549999999998
C      44.125014999999998     48.812850000000005     48.022549999999995
C      44.291905000000000     51.009049999999995     45.972149999999999
C      43.706634999999999     50.121050000000004     48.056249999999999
C      43.367815000000000     50.967250000000000     47.036249999999995
H      47.131194999999998     43.219050000000003     46.720450000000000
H      45.556895000000004     45.281050000000000     46.621649999999995
H      44.743205000000003     47.528349999999996     46.439349999999997
H      52.960995000000004     49.513550000000002     50.920750000000005
H      52.796495000000000     51.828949999999999     50.108950000000000
H      50.488095000000008     52.607350000000004     49.825449999999996
H      51.064495000000001     44.883149999999993     47.686949999999996
H      51.477295000000005     44.537349999999996     49.448349999999998
H      49.542695000000002     43.899049999999995     47.878049999999995
H      49.134095000000002     43.399750000000004     49.862450000000003
H      46.290495000000000     50.483349999999994     48.574749999999995
H      52.733195000000002     46.196249999999999     49.367449999999998
H      53.582294999999995     47.338850000000001     50.650749999999995
H      52.491895000000007     45.574049999999993     50.609449999999995
H      48.063695000000003     52.780949999999997     50.569049999999997
H      46.303395000000002     52.399449999999995     50.281549999999989
H      47.157095000000005     49.109349999999999     45.429149999999993
H      47.513795000000002     49.842450000000007     46.484949999999998
H      46.502794999999999     51.332850000000001     45.312249999999999
H      44.058215000000004     48.245049999999999     49.092649999999999
H      44.052385000000001     51.633050000000004     45.079249999999995
H      42.865465000000000     50.526750000000000     48.803149999999995
H      42.417705000000005     51.694449999999996     47.149149999999999
