31

C      48.487699999999997     48.482399999999991     48.925149999999988
C      46.775400000000005     46.848299999999995     47.245309999999989
C      47.044499999999999     48.642499999999998     48.718519999999984
C      46.117900000000006     47.757900000000006     48.305589999999995
C      46.630499999999998     50.123800000000003     49.169789999999978
C      44.859399999999994     48.262900000000002     48.648449999999983
C      45.417800000000000     50.096299999999999     49.894229999999993
C      44.480099999999993     48.995500000000007     49.817359999999979
C      51.411799999999999     49.879599999999996     48.560309999999987
C      48.169399999999996     46.225899999999996     47.889049999999983
C      49.591300000000004     48.099100000000007     48.090939999999989
C      49.302800000000005     46.962100000000007     47.336339999999993
C      50.885499999999993     48.833900000000000     47.821609999999993
C      50.336299999999994     46.525900000000007     46.352271999999985
C      51.757400000000004     48.650300000000001     46.737679999999983
C      51.360699999999994     47.401700000000005     46.099900999999988
H      52.128299999999996     50.602300000000000     47.893199999999993
H      47.429000000000002     47.413300000000007     46.347168999999994
H      45.986900000000006     46.118399999999994     46.895719999999983
H      47.222300000000004     51.014700000000005     49.197849999999988
H      44.028599999999997     47.844700000000003     48.105989999999991
H      45.110399999999998     50.718400000000003     50.674029999999988
H      43.364199999999997     49.370000000000005     50.026719999999983
H      52.168999999999997     49.634000000000000     49.228959999999987
H      48.637400000000000     49.335899999999995     49.785759999999982
H      48.084900000000005     44.985299999999995     47.540609999999987
H      48.203199999999995     46.152200000000008     48.890309999999985
H      50.734899999999996     50.200900000000004     49.418569999999988
H      50.216799999999992     45.588700000000003     45.683511999999993
H      52.635800000000003     49.171099999999996     46.500863999999993
H      52.011499999999998     46.849500000000006     45.325970000000012
