6

C      48.039999999999992     47.608549999999994     47.464449999999992
C      48.013700000000000     48.484249999999989     48.420649999999995
H      48.871200000000002     46.935350000000000     47.225349999999992
H      47.287300000000002     49.064650000000000     48.443049999999999
H      47.128799999999998     47.678249999999991     46.703749999999999
H      48.706699999999998     48.467849999999984     49.296250000000001
