5

C      48.080550000000002     47.873099999999987     48.052699999999987
H      47.204949999999997     47.910200000000003     47.384099999999997
H      47.037750000000003     47.316699999999997     48.615900000000003
H      48.298450000000003     48.908699999999996     47.778299999999994
H      48.962249999999997     47.091300000000004     47.805500000000002
