16

C      46.168999999999990     47.295999999999992     48.584399999999995
C      48.434600000000003     46.324300000000001     46.868499999999997
C      47.337600000000009     47.986600000000003     48.209499999999991
C      48.632500000000007     47.374200000000009     47.466499999999996
C      47.710000000000008     49.000800000000005     49.130200000000002
C      49.857700000000008     48.150500000000001     47.455199999999991
C      48.810699999999997     49.807200000000002     49.103099999999998
C      49.726100000000002     49.576200000000007     47.919399999999996
H      45.340800000000002     47.480499999999999     49.356899999999996
H      45.932400000000001     46.312700000000000     48.082899999999995
H      49.030500000000004     46.112200000000009     45.965800000000002
H      47.383099999999999     45.687300000000000     46.897799999999989
H      47.177800000000005     49.267000000000003     50.034199999999998
H      50.659199999999998     47.683799999999998     46.907299999999992
H      49.024300000000011     50.280200000000001     50.029899999999998
H      49.574100000000001     50.312700000000000     47.095699999999994
