22

C      50.262149999999998     47.001359999999991     47.861999999999995
C      50.336849999999998     48.074399999999990     48.889400000000002
C      49.407150000000001     47.836679999999994     46.751500000000007
C      48.880150000000000     48.661409999999997     49.314000000000007
C      47.921850000000006     47.810910000000000     47.100200000000008
C      47.818750000000009     48.074779999999997     48.418000000000013
C      46.821650000000005     47.102660000000007     46.441400000000009
C      46.757150000000010     47.131920000000001     49.108900000000013
C      45.698850000000007     46.955829999999999     47.112600000000008
C      45.639250000000004     46.967529999999996     48.650700000000008
H      49.472750000000005     46.262459999999997     48.299400000000006
H      51.016050000000007     46.217300000000002     47.420800000000007
H      51.225650000000002     48.694849999999995     48.535400000000003
H      50.590850000000003     47.797689999999996     50.038300000000007
H      49.563950000000006     47.346370000000000     45.657300000000006
H      49.795749999999998     48.892350000000000     46.784800000000004
H      48.662750000000003     48.576429999999995     50.494999999999997
H      49.011350000000007     49.865839999999999     49.080500000000008
H      46.860050000000001     46.477939999999997     45.505000000000003
H      47.032850000000010     46.681930000000001     50.005000000000003
H      44.986450000000005     46.134160000000001     46.965200000000003
H      44.774349999999998     46.580549999999995     49.157600000000009
