5

C      47.983199999999997     47.953049999999990     48.037399999999991
H      48.956299999999999     47.835250000000002     47.478099999999998
H      48.313399999999987     49.017650000000003     48.521900000000002
H      48.199099999999987     46.982349999999997     48.469700000000003
H      47.043700000000001     48.168149999999997     47.496099999999998
