17

C      49.081999999999994     49.800949999999993     47.796599999999998
C      49.982900000000001     47.174550000000011     48.832600000000006
C      48.400999999999996     48.403850000000006     47.643100000000011
C      48.827300000000008     47.338750000000005     48.402500000000011
C      47.046900000000008     48.792349999999999     47.162800000000004
C      47.825000000000003     46.348650000000006     48.462400000000009
C      46.241700000000009     47.727450000000005     46.947600000000001
C      46.916399999999996     46.501649999999998     47.334100000000007
H      49.892100000000013     50.005150000000000     47.128500000000010
H      49.245000000000005     50.055450000000008     48.913100000000007
H      48.167400000000001     50.533749999999998     47.884500000000010
H      50.727800000000002     47.872150000000005     48.340200000000003
H      50.172899999999998     46.139449999999997     49.260899999999999
H      46.661100000000005     49.881050000000002     46.939000000000007
H      47.991399999999999     45.466250000000002     49.072700000000005
H      45.272199999999998     47.937449999999998     46.739100000000001
H      46.148800000000008     45.716250000000002     46.958400000000005
