6

C      47.458499999999987     47.820499999999996     48.385749999999987
C      48.365999999999993     47.892699999999998     47.391849999999998
H      47.449199999999998     47.667099999999998     49.527549999999998
H      46.487800000000000     47.755100000000006     47.755249999999997
H      47.883000000000003     48.332900000000002     46.472450000000002
H      49.512200000000000     47.703099999999999     47.485949999999995
