5

C      48.178349999999995     47.827099999999987     48.007024999999992
H      47.329950000000004     47.635700000000000     47.424794999999996
H      48.053450000000005     47.218000000000004     48.965035000000000
H      48.606450000000002     48.781999999999996     48.799075000000002
H      48.670049999999996     47.909700000000001     47.034965000000000
