6

C      47.810849999999988     47.312949999999987     47.689449999999994
C      48.180850000000000     48.405150000000006     48.453749999999992
H      46.739349999999995     47.079449999999994     47.803250000000006
H      48.257950000000001     47.184150000000002     46.690249999999999
H      49.260650000000005     48.779949999999999     48.370750000000001
H      47.691749999999999     48.920550000000006     49.309750000000001
