16

C      49.931799999999996     47.734669999999994     46.360399999999998
C      49.930900000000008     47.756670000000000     47.830999999999996
C      48.649500000000003     48.108569999999986     45.952700000000007
C      48.815899999999999     48.298069999999996     48.411400000000008
C      47.917500000000004     48.346969999999999     47.218900000000005
C      48.263100000000009     48.726770000000002     49.747800000000005
C      46.486599999999996     48.102169999999987     47.327800000000003
C      46.885499999999993     48.499269999999996     49.880100000000006
C      46.259000000000000     48.179569999999998     48.708700000000007
H      50.789600000000007     47.678569999999993     45.623400000000004
H      48.213999999999999     47.637169999999998     45.061100000000003
H      50.750900000000001     47.245530000000002     48.426400000000008
H      48.547399999999996     48.754469999999998     50.845800000000004
H      45.802800000000005     47.634569999999997     46.621299999999998
H      46.288200000000003     48.410669999999996     50.938899999999997
H      45.210399999999993     48.107770000000002     48.849900000000005
