6

C      47.448549999999990     47.598049999999994     47.975849999999994
C      48.591349999999991     48.220650000000006     48.614750000000001
H      46.510149999999996     48.028250000000000     47.985349999999997
H      47.632350000000002     46.756050000000002     47.365549999999999
H      48.514150000000001     49.243949999999998     48.634450000000001
H      49.489850000000004     47.793950000000002     48.323949999999996
