22

C      47.296849999999992     45.735519999999980     46.665950000000002
C      48.350650000000002     46.767519999999998     46.009749999999997
C      47.730450000000005     45.890919999999987     48.125850000000000
C      47.639250000000004     48.154063000000001     46.012250000000009
C      47.464950000000002     47.333520000000000     48.508350000000007
C      47.646349999999998     48.328099000000002     47.540850000000006
C      47.450550000000007     47.703820000000000     49.852750000000000
C      47.671050000000008     49.759970000000003     47.858249999999998
C      47.259249999999994     49.087209999999992     50.047550000000001
C      47.137749999999997     50.092530000000004     49.082750000000004
H      47.729950000000002     44.885719999999999     46.307350000000000
H      46.356849999999994     45.992919999999991     46.411650000000009
H      48.411950000000004     46.490719999999989     44.924549999999996
H      49.643150000000006     46.909219999999998     45.788849999999996
H      47.278949999999995     45.333919999999999     48.832549999999998
H      48.898650000000004     45.764219999999987     48.133150000000001
H      48.529150000000001     48.885700000000007     45.540950000000009
H      46.742450000000005     48.362633000000002     45.404750000000007
H      47.496750000000006     47.136019999999995     50.900950000000009
H      47.969650000000001     50.342410000000001     47.025950000000009
H      46.959950000000006     49.355510000000002     51.075450000000004
H      46.745050000000006     51.114280000000001     49.324950000000001
