66

C      44.702049999999986     51.173899999999989     49.755349999999993
C      44.534749999999995     51.505800000000001     48.331650000000003
C      50.990549999999992     48.087600000000002     48.193149999999996
C      50.864849999999997     48.299799999999998     46.754250000000006
C      45.889649999999996     50.678500000000007     50.254150000000003
C      45.253049999999995     50.812499999999993     47.315950000000008
C      50.092249999999986     48.518899999999995     49.229549999999996
C      49.711949999999995     48.841299999999997     46.339250000000000
C      48.036949999999997     49.674399999999999     49.669550000000008
C      47.373549999999987     49.794000000000004     46.868150000000007
C      46.789849999999994     50.221200000000003     49.201550000000005
C      46.478649999999995     50.262300000000003     47.897150000000003
C      48.945649999999993     49.157000000000004     48.666150000000009
C      48.627349999999993     49.127500000000005     47.204650000000008
C      43.481849999999994     51.347199999999994     50.450550000000000
C      42.251949999999994     51.791000000000004     49.905949999999997
C      42.195849999999993     52.493800000000000     48.704349999999998
C      43.322849999999995     52.252500000000005     47.754950000000001
C      43.799349999999997     51.192799999999998     51.882349999999995
C      45.375349999999990     51.288999999999994     45.919550000000008
C      44.341849999999994     52.316700000000004     45.495550000000001
C      43.201549999999990     52.574400000000004     46.349650000000004
C      50.634549999999997     48.185600000000001     50.563449999999996
C      52.254550000000002     48.043299999999995     50.213950000000004
C      44.003749999999989     53.161200000000001     44.301049999999996
C      42.818449999999991     53.493800000000000     43.438350000000007
C      42.681349999999995     51.413199999999996     52.720649999999999
C      53.606449999999995     47.031699999999994     48.213450000000002
C      52.642949999999992     45.560200000000002     45.494149999999998
C      53.592149999999997     45.528399999999998     47.862150000000007
C      53.703349999999993     44.960699999999996     46.540450000000000
C      53.928949999999993     44.836000000000006     49.068350000000002
C      54.433549999999990     43.675199999999997     46.375549999999997
C      53.966049999999996     43.491400000000006     48.819150000000000
C      54.007449999999999     42.928900000000006     47.460749999999997
C      52.063349999999993     47.228699999999996     48.913950000000007
H      51.550349999999995     48.202700000000000     45.820850000000000
H      49.372049999999994     48.907199999999996     45.270249999999997
H      48.194749999999992     49.631899999999995     50.737650000000009
H      47.061449999999986     50.038699999999999     45.771450000000009
H      41.445849999999993     52.001299999999993     50.758050000000004
H      41.333649999999999     53.135200000000005     48.378650000000000
H      44.592749999999995     50.626399999999997     52.282350000000001
H      46.399149999999999     51.642999999999994     45.532850000000003
H      42.540049999999994     53.237599999999993     45.913150000000009
H      52.374949999999991     48.922099999999993     49.570450000000001
H      42.530449999999995     52.642999999999994     42.810949999999998
H      41.676349999999992     53.539800000000007     43.835050000000003
H      42.809949999999994     51.171299999999995     53.730049999999999
H      42.051749999999991     52.072300000000006     52.319550000000000
H      53.225450000000002     45.858799999999995     44.660550000000008
H      53.613549999999996     47.689399999999999     47.187249999999999
H      51.989349999999995     44.701299999999996     45.046650000000007
H      51.854549999999996     46.260500000000000     45.866549999999997
H      53.952849999999991     44.637599999999999     50.229450000000007
H      54.641649999999991     43.111700000000006     45.347349999999999
H      53.510249999999992     42.719699999999996     49.481050000000003
H      53.743649999999995     41.781699999999994     47.680250000000008
H      51.658249999999995     46.243699999999997     49.241949999999996
H      52.907349999999987     48.090399999999995     51.144349999999996
H      54.666350000000001     47.259599999999999     48.777250000000002
H      42.834049999999998     54.218300000000006     42.269950000000001
N      46.404349999999994     50.771499999999996     51.517249999999997
N      46.686649999999993     50.887599999999999     52.618649999999995
O      50.015749999999990     48.239500000000000     51.573250000000009
O      44.956949999999999     53.268899999999995     43.593150000000001
