16

C      48.293349999999990     50.098949999999995     49.325649999999996
C      49.952549999999995     48.396450000000002     46.830449999999999
C      48.124050000000004     48.920749999999998     48.430750000000003
C      49.018350000000005     48.036349999999999     47.510949999999994
C      46.780449999999995     48.442349999999998     48.130650000000003
C      48.638749999999995     46.710949999999997     47.832149999999999
C      46.189349999999997     47.158549999999998     48.139449999999997
C      47.217350000000003     46.216650000000001     47.920050000000003
H      48.783849999999994     50.766750000000002     48.534250000000000
H      48.297249999999998     50.363050000000001     50.292349999999999
H      49.652650000000001     49.095450000000000     45.707650000000001
H      50.897550000000003     48.433450000000001     47.184250000000006
H      46.210150000000006     49.404249999999998     48.142049999999998
H      49.284250000000007     45.970849999999999     47.533950000000004
H      45.102449999999997     46.763050000000000     48.104349999999997
H      46.885349999999995     45.233249999999998     47.305049999999994
