5

C      47.933599999999998     47.743539999999996     48.310799999999986
H      48.010899999999999     47.746940000000002     47.268199999999993
H      47.002299999999998     47.390470000000001     48.731800000000007
H      48.112900000000003     48.709460000000000     48.720799999999997
H      48.997700000000002     47.290540000000000     48.473399999999998
