22

C      46.869649999999993     47.575699999999983     45.980599999999995
C      45.692450000000001     48.011899999999997     46.790100000000002
C      48.257350000000002     48.331699999999998     46.220400000000005
C      46.244850000000000     49.067700000000002     47.854199999999999
C      48.328350000000007     47.716399999999993     47.570799999999998
C      47.481950000000005     48.492599999999996     48.481000000000002
C      49.384149999999998     46.861999999999995     47.813899999999997
C      48.187350000000002     48.473500000000001     49.789600000000000
C      50.081849999999996     47.124700000000004     49.042999999999999
C      49.353549999999991     47.900700000000001     49.954200000000007
H      46.742150000000002     46.932699999999997     44.900900000000000
H      47.177950000000003     46.503900000000002     46.244300000000003
H      44.949249999999999     48.255799999999994     46.114899999999999
H      45.209550000000000     47.102099999999993     47.305900000000001
H      47.917949999999998     49.507399999999990     46.185900000000011
H      45.450050000000005     49.380799999999994     48.539099999999998
H      46.653350000000003     49.901400000000010     47.404900000000005
H      49.989950000000000     46.098599999999990     46.878700000000002
H      47.493250000000003     48.957899999999995     50.541800000000002
H      51.050750000000001     46.675299999999993     49.244400000000006
H      49.295749999999991     47.884599999999992     51.099100000000000
H      49.105849999999997     47.802399999999992     45.889600000000002
