32

C      50.227699999999984     47.867144999999994     50.174199999999999
C      49.593599999999995     49.873495000000005     44.091300000000004
C      48.673599999999993     47.922764999999998     50.178500000000000
C      47.964899999999993     48.457115000000002     48.949500000000000
C      47.950499999999998     47.862274999999997     51.352800000000002
C      46.707099999999997     48.876775000000009     48.881600000000006
C      46.659099999999995     48.471975000000000     51.332899999999995
C      46.029899999999998     49.171615000000003     50.206199999999995
C      48.442499999999995     49.928435000000007     44.705100000000002
C      48.764099999999992     48.501384999999999     47.590699999999998
C      47.615399999999994     48.901575000000008     45.459999999999994
C      47.883199999999995     47.973225000000014     46.552800000000005
C      46.771499999999996     48.183864999999997     44.578000000000003
C      47.297399999999996     46.687785000000005     46.825299999999999
C      46.201899999999995     46.856115000000003     44.682199999999995
C      46.403299999999994     46.149095000000003     45.872799999999998
H      50.541999999999994     46.869855000000001     50.734499999999997
H      50.782699999999984     47.786835000000011     49.358099999999993
H      50.900600000000004     48.919645000000003     50.332499999999996
H      50.043399999999998     50.822605000000010     43.802700000000002
H      49.990599999999993     48.913044999999997     44.011200000000002
H      48.515799999999992     47.553525000000008     52.197299999999998
H      45.964799999999997     49.151775000000001     47.922100000000000
H      45.849099999999993     48.292995000000005     52.145499999999998
H      45.099399999999996     49.421734999999998     50.328499999999991
H      49.569299999999991     47.880634999999998     47.535200000000003
H      47.747899999999994     50.857775000000004     44.814999999999998
H      49.245899999999992     49.650255000000016     47.372200000000007
H      46.308399999999992     48.946345000000008     43.852000000000004
H      48.012199999999993     46.153255000000001     47.514099999999999
H      45.298899999999996     46.628735000000006     44.097499999999997
H      46.110099999999996     45.142224999999996     46.085399999999993
