22

C      47.459379999999996     48.536349999999999     50.296844999999990
C      48.475929999999998     49.568450000000006     49.875484999999998
C      47.325040000000001     47.329650000000008     49.346594999999994
C      47.968330000000002     49.972950000000004     48.485992999999993
C      48.231150000000007     47.501150000000003     48.096134999999990
C      48.330970000000001     48.780049999999996     47.624235000000013
C      48.445190000000004     46.305850000000000     47.289634999999990
C      48.999670000000002     48.801049999999996     46.313235000000020
C      49.138170000000009     46.280049999999996     46.136335000000031
C      49.203370000000000     47.580050000000007     45.565935000000025
H      46.390979999999999     48.970250000000000     50.405465000000007
H      47.595170000000003     48.097150000000006     51.424365000000009
H      48.677869999999999     50.619949999999996     50.505305000000007
H      49.459370000000000     49.145750000000000     49.706294999999997
H      46.234929999999999     47.386450000000004     49.057524999999998
H      47.341670000000001     46.350950000000005     49.827955000000003
H      48.647570000000009     50.778749999999995     47.846035000000015
H      46.779730000000001     50.568450000000006     48.523944999999998
H      48.136540000000004     45.221250000000005     47.625935000000027
H      49.118270000000003     49.720549999999996     45.859234999999998
H      49.468070000000004     45.383649999999996     45.679635000000005
H      49.765070000000001     47.693950000000008     44.575634999999991
