6

C      47.468049999999998     47.890349999999991     48.362149999999993
C      48.531949999999995     47.783850000000001     47.482749999999996
H      46.261949999999999     48.040350000000004     48.160550000000001
H      47.615250000000003     47.922550000000001     49.547550000000001
H      49.738050000000001     48.009349999999998     47.576250000000002
H      48.326949999999997     48.216149999999999     46.452449999999999
