6

C      47.426399999999994     47.672599999999996     47.728449999999995
C      48.538700000000006     48.309100000000001     48.209049999999998
H      48.131399999999999     49.021000000000001     48.832850000000001
H      46.466899999999995     47.896999999999991     48.210850000000001
H      47.825699999999998     46.978999999999999     47.167149999999999
H      49.533100000000005     47.840400000000002     48.010249999999999
