18

C      50.458399999999997     46.275819999999996     47.166499999999999
C      48.466200000000001     49.899240000000006     48.741199999999992
C      49.531600000000012     47.089830000000006     47.457400000000007
C      48.228900000000010     47.579240000000013     47.173600000000008
C      47.831300000000013     48.670840000000013     48.053900000000013
C      47.089200000000005     46.740310000000008     46.742300000000000
C      46.594400000000007     48.959540000000004     48.585599999999985
C      45.725700000000003     47.041589999999999     47.199600000000004
C      45.557500000000005     47.989240000000009     48.092699999999994
H      51.362600000000000     46.251110000000011     47.690000000000012
H      49.561600000000013     49.912440000000004     48.663600000000002
H      47.816500000000005     50.792940000000002     48.355999999999995
H      48.532600000000002     49.547940000000011     49.848199999999991
H      49.773400000000009     45.207059999999998     46.901300000000006
H      46.969100000000012     45.870190000000008     46.151800000000009
H      46.371400000000008     49.847740000000002     49.222899999999996
H      44.909400000000005     46.297960000000003     46.647199999999998
H      44.637400000000000     48.165940000000006     48.720300000000009
