57

C      45.263574999999989     48.545979999999993     51.329449999999994
C      47.516625000000005     49.449900000000000     47.624949999999998
C      48.141125000000002     48.681539999999998     48.745349999999988
C      51.952624999999998     49.219149999999999     45.615349999999992
C      48.161325000000005     49.746330000000000     46.436250000000001
C      49.565825000000004     48.378059999999998     48.657749999999993
C      50.706025000000011     49.781269999999999     45.218149999999994
C      51.475525000000005     48.520389999999999     46.776249999999990
C      49.580425000000005     49.482230000000001     46.149949999999990
C      50.055525000000003     48.541730000000001     47.276049999999998
C      46.237994999999998     49.922750000000008     47.843449999999990
C      45.375285000000005     49.791480000000007     49.041950000000000
C      46.052895000000007     49.089200000000005     50.116549999999989
C      47.358824999999996     48.634280000000004     49.969949999999997
C      45.639215000000007     50.772040000000004     46.757849999999991
C      44.365925000000004     51.326779999999999     47.014249999999990
C      43.564835000000002     50.969969999999989     48.091449999999995
C      44.037994999999995     50.259039999999999     49.112249999999989
C      47.750524999999996     50.875659999999996     45.459249999999997
C      46.498825000000011     51.368670000000002     45.780649999999994
C      52.621025000000003     48.236339999999998     47.726949999999988
C      45.897075000000001     52.367999999999995     44.701250000000002
C      52.498725000000007     46.830960000000019     48.190449999999998
C      46.470224999999999     44.496560000000009     48.972049999999996
C      43.786024999999995     43.913860000000021     48.264249999999990
C      45.479965000000007     45.237960000000001     49.226450000000000
C      44.149384999999995     45.106759999999994     48.783149999999992
C      45.723745000000008     46.342159999999993     49.995349999999988
C      43.372205000000008     46.383760000000009     48.665349999999989
C      44.631495000000001     47.261105799999996     50.665649999999999
C      43.631725000000003     47.411695000000002     49.557149999999993
H      46.062955000000002     48.038387999999998     51.920749999999998
H      44.662414999999996     49.364779999999996     51.560549999999992
H      52.949425000000005     48.951520000000002     44.946449999999999
H      50.266225000000006     48.373620000000003     49.498949999999994
H      50.982925000000009     50.559219999999996     44.405949999999990
H      53.581125000000000     48.466209999999997     47.077050000000000
H      48.048925000000011     48.148421999999997     50.843449999999990
H      43.899375000000006     52.037160000000000     46.298649999999995
H      42.584535000000002     51.301719999999996     48.306550000000001
H      43.188265000000001     50.267009999999999     50.033049999999989
H      48.398825000000002     51.327349999999996     44.579149999999998
H      52.636025000000004     49.080570000000009     48.487049999999996
H      45.478814999999997     51.581099999999992     44.132249999999999
H      45.253844999999998     53.100740000000002     45.104050000000001
H      46.641425000000012     52.667999999999999     44.079250000000002
H      52.003524999999996     46.635360000000006     49.165849999999992
H      53.493525000000005     46.714860000000002     48.620549999999994
H      52.373325000000008     46.048660000000012     47.467849999999999
H      46.284315000000007     43.485559999999978     49.163749999999993
H      47.290324999999996     44.776260000000001     48.116349999999997
H      42.784255000000002     43.949860000000022     47.710549999999998
H      44.063794999999999     42.899259999999998     48.183849999999993
H      46.790025000000000     46.410260000000015     50.271749999999997
H      42.418875000000000     46.295959999999994     48.223949999999988
H      44.192585000000008     46.558260000000004     51.417449999999988
H      42.816865000000007     48.088518999999998     49.752249999999989
