5

C      47.933449999999993     47.734416999999986     48.137249999999987
H      47.978949999999990     49.089877000000001     46.781949999999995
H      47.564349999999997     46.910122999999999     47.719449999999995
H      47.552450000000000     47.942206999999996     49.218050000000005
O      48.447550000000000     49.024697000000003     47.609250000000003
