6

C      47.438699999999990     47.752400000000002     47.626904499999995
C      48.345200000000006     47.945099999999996     48.621164499999999
H      47.991099999999989     47.430999999999997     46.698165500000002
H      46.532100000000000     47.357500000000002     47.955234499999996
H      48.070399999999992     48.642499999999998     49.301834499999998
H      49.467900000000000     48.019900000000007     48.491204500000002
