44

C      48.769099999999995     47.040399999999998     49.137229999999988
C      47.915399999999998     47.419300000000007     48.042919999999995
C      52.435200000000002     47.585200000000000     45.978778999999996
C      51.613999999999997     47.993700000000004     44.898129999999988
C      50.216300000000011     46.706000000000003     48.794739999999997
C      48.433300000000003     47.479900000000001     46.715869999999995
C      52.039999999999999     47.345500000000001     47.222439999999992
C      50.233800000000002     47.669700000000006     45.018530000000020
C      50.651999999999994     46.936800000000005     47.348319999999994
C      49.771500000000003     47.373000000000005     46.283059999999992
C      48.298600000000000     46.961799999999997     50.562129999999996
C      46.992500000000000     47.157300000000006     50.844399999999986
C      46.074700000000000     47.328699999999998     49.859659999999998
C      46.653500000000001     47.910499999999999     48.639859999999992
C      50.924199999999992     46.087199999999996     49.852559999999990
C      50.497100000000003     46.454499999999996     51.171909999999990
C      49.277200000000001     46.932800000000000     51.580719999999992
C      45.911000000000001     49.020899999999997     48.363509999999991
C      51.452000000000005     45.843800000000002     52.047620000000002
C      45.800900000000006     50.340900000000005     47.584419999999994
C      44.556699999999999     47.381100000000004     50.132909999999995
C      49.499300000000005     47.602500000000006     44.024530000000020
C      43.506599999999999     48.144400000000005     50.321599999999997
H      53.456600000000002     47.725099999999998     45.507045999999995
H      51.969900000000003     48.365800000000007     44.064129999999992
H      47.622900000000001     47.825000000000003     45.574903999999997
H      51.842700000000001     45.309700000000007     49.777279999999998
H      46.100100000000005     50.268699999999995     46.407429999999991
H      44.917999999999999     49.322000000000003     48.950709999999994
H      52.502599999999994     47.481400000000008     49.113579999999992
H      45.656700000000001     47.442099999999996     52.257269999999984
H      51.089800000000004     44.912000000000006     52.697379999999988
H      51.388500000000001     46.773300000000006     53.010869999999990
H      52.611300000000007     45.823700000000002     51.757449999999984
H      46.408099999999997     51.087999999999994     47.753319999999995
H      44.759999999999998     50.769000000000005     47.807919999999996
H      48.957700000000010     47.137900000000002     52.620789999999992
H      43.563899999999997     49.084400000000002     50.686189999999996
H      49.942700000000009     47.730000000000004     42.989130000000010
H      48.377800000000001     47.284700000000001     43.962430000000005
H      42.543399999999998     47.704499999999996     50.426529999999993
H      44.188099999999999     46.373900000000006     49.736629999999998
O      52.753300000000003     46.811599999999999     48.374979999999994
O      46.638100000000001     47.438900000000004     52.153199999999991
