6

C      48.232149999999990     47.644049999999993     47.366999999999990
C      48.015749999999997     48.316650000000003     48.545099999999998
H      46.841449999999995     47.862649999999995     48.544999999999995
H      49.158550000000005     47.511749999999999     46.756000000000000
H      48.456650000000010     48.991750000000003     49.244000000000000
H      47.447150000000008     47.008249999999997     46.878300000000003
