9

C      47.984199999999987     48.761399999999995     47.564699999999995
C      47.442399999999999     47.369300000000003     47.495500000000000
C      48.514100000000006     49.156300000000009     48.601600000000005
H      47.015200000000000     47.152000000000008     46.334299999999999
H      47.547300000000000     49.465499999999999     46.821399999999997
H      46.539899999999996     47.082600000000006     48.165800000000004
H      48.289999999999999     46.534500000000001     47.730499999999992
H      48.150900000000000     49.285500000000006     49.665700000000001
H      49.460100000000004     48.490400000000001     48.947500000000005
