18

C      49.835704999999990     47.100664999999999     48.443549999999995
C      47.247114999999994     45.874215000000007     46.666449999999998
C      48.399434999999997     47.634415000000004     48.623750000000001
C      47.676654999999997     47.064765000000001     47.503950000000003
C      48.414374999999993     48.864205000000013     49.335049999999995
C      46.728844999999993     48.133705000000006     47.272149999999996
C      47.427035000000004     49.800405000000012     48.929550000000006
C      46.356904999999998     49.228405000000002     48.127449999999996
H      46.134555000000006     45.867305000000002     46.452050000000000
H      50.125735000000006     47.468145000000007     47.377549999999999
H      49.921424999999999     46.093845000000002     48.185249999999996
H      50.473325000000003     47.473754999999997     49.163049999999998
H      47.545964999999995     46.448895000000007     45.786749999999998
H      47.550714999999997     44.988095000000001     46.159149999999997
H      48.942175000000006     49.077605000000005     50.213250000000002
H      45.920514999999995     47.772365000000008     46.506450000000001
H      47.143585000000002     51.011904999999999     49.177650000000000
H      45.526674999999997     49.767305000000007     47.964349999999996
