16

C      49.445299999999989     49.181100000000001     48.034349999999989
C      47.071599999999997     49.517699999999998     46.307249999999996
C      48.154900000000005     48.745899999999999     48.226450000000000
C      47.001500000000000     48.806699999999999     47.313350000000000
C      48.154400000000003     47.611700000000006     49.256349999999998
C      46.298000000000009     47.630100000000006     47.130949999999999
C      47.101800000000004     46.781200000000005     49.420450000000002
C      46.275200000000005     46.780899999999995     48.285449999999997
H      49.668600000000005     49.999400000000001     47.317449999999994
H      50.338100000000004     48.512499999999996     48.031450000000007
H      47.864100000000001     49.419000000000004     45.603949999999998
H      46.264299999999999     50.127699999999997     45.875150000000005
H      48.943999999999996     47.726900000000008     50.025149999999996
H      46.323000000000000     47.205800000000004     46.207750000000004
H      47.338900000000002     46.174600000000005     50.396050000000002
H      45.661899999999996     45.872300000000003     48.818850000000012
