6

C      47.965949999999992     48.729399999999998     47.423574999999985
C      47.808650000000000     47.741800000000005     48.378877000000003
H      48.808150000000005     49.378099999999996     47.424474999999994
H      47.191849999999995     49.145400000000002     46.712375000000002
H      47.227350000000001     46.621900000000004     47.754074999999993
H      48.384849999999993     47.501200000000004     49.287624999999998
