25

C      48.005849999999995     48.500349999999997     50.186250000000001
C      46.073149999999998     46.243150000000000     48.017150000000001
C      47.236150000000009     45.332750000000004     47.594450000000009
C      46.414250000000010     47.572950000000006     48.162050000000008
C      49.331050000000005     48.213449999999995     49.356150000000000
C      47.657449999999997     48.117549999999994     47.456150000000008
C      48.719949999999997     48.847449999999995     48.020550000000000
C      47.376750000000001     48.504249999999999     46.051550000000006
C      49.390450000000001     50.026149999999987     47.551050000000004
C      47.937750000000008     49.706750000000000     45.588549999999998
C      48.976250000000007     50.389949999999999     46.355850000000004
H      47.675950000000000     45.524150000000006     46.602649999999997
H      47.384450000000001     49.400050000000007     49.758150000000001
H      47.950749999999999     48.843750000000000     51.509149999999991
H      47.392150000000001     47.636650000000003     50.138249999999999
H      45.492350000000002     45.683850000000007     48.671549999999996
H      47.605350000000001     44.781949999999995     48.472650000000002
H      46.403550000000010     44.612250000000003     47.249949999999998
H      45.913250000000005     48.230549999999994     48.833650000000006
H      49.432250000000010     47.142949999999999     49.496449999999996
H      50.507649999999998     48.388350000000003     49.558450000000008
H      46.760150000000010     47.817650000000000     45.409250000000000
H      50.142550000000014     50.563149999999993     48.067650000000000
H      47.962249999999997     50.075850000000003     44.490850000000009
H      49.511850000000010     51.387749999999997     45.921850000000006
