6

C      47.697899999999990     48.588499999999996     47.988699999999994
C      48.235900000000001     47.217799999999997     48.059899999999992
H      46.716499999999996     48.728799999999993     48.464099999999995
H      48.153500000000008     49.358400000000003     47.459200000000003
H      49.283500000000004     46.897599999999997     47.664099999999998
H      47.492599999999996     46.641599999999997     48.540799999999997
