6

C      48.617449999999998     48.049599999999998     47.636849999999988
C      47.446850000000005     48.132199999999997     48.241549999999989
H      49.422449999999998     48.231099999999998     48.243349999999992
H      48.682650000000010     47.597899999999996     46.680650000000000
H      46.577550000000002     47.930199999999999     47.527749999999997
H      47.048250000000003     48.402100000000004     49.319350000000000
