74

C      50.834914999999995     50.341599999999993     47.443550000000002
C      50.937814999999993     50.844899999999996     48.773150000000008
C      54.537115000000007     52.891399999999997     46.680850000000000
C      51.543214999999996     50.436300000000003     46.267650000000010
C      52.214514999999999     51.525500000000008     48.995750000000008
C      53.472715000000001     52.321100000000001     45.694450000000010
C      54.046214999999997     52.864699999999999     47.941950000000013
C      52.614815000000000     51.389600000000002     46.577950000000008
C      53.040514999999999     51.877300000000005     47.932150000000000
C      49.555915000000006     49.570000000000000     47.225950000000005
C      48.795615000000005     49.237400000000001     48.383250000000011
C      49.123415000000001     50.003399999999999     49.582050000000002
C      49.008915000000002     49.097200000000001     45.977650000000004
C      47.885815000000001     48.241799999999998     46.037150000000004
C      47.260015000000003     47.778799999999997     47.240250000000010
C      47.695515000000000     48.259299999999996     48.474050000000013
C      51.294814999999993     49.901199999999996     44.899550000000012
C      49.691515000000003     49.860500000000002     44.822050000000011
C      46.342815000000002     46.565300000000001     46.898950000000006
C      49.405915000000000     49.354999999999997     43.339350000000003
C      49.210915000000000     51.320099999999996     44.836750000000002
C      44.952215000000002     46.459699999999998     46.927550000000004
C      45.192715000000000     49.645499999999998     46.257350000000010
C      43.941614999999999     47.496099999999998     47.034750000000010
C      44.149315000000001     48.934100000000001     47.035450000000004
C      42.569015000000000     47.135899999999999     47.437550000000009
C      43.152615000000004     49.775700000000001     47.397449999999999
C      41.650264999999997     48.130899999999997     48.136450000000004
C      42.059914999999997     49.531599999999997     48.250050000000009
C      49.515515000000001     45.641500000000001     49.082250000000009
C      49.809715000000004     46.110799999999998     50.381150000000012
C      49.316515000000003     45.753500000000003     51.677150000000005
C      46.425114999999998     46.672300000000000     50.065650000000012
C      47.793315000000000     45.857799999999997     51.892150000000008
C      46.929515000000002     45.871800000000000     50.748150000000003
C      46.866315000000000     45.378000000000000     52.971450000000011
C      46.690815000000001     44.529800000000002     50.530650000000001
C      46.076815000000003     44.142699999999998     52.731750000000012
C      46.028514999999999     43.704900000000002     51.347150000000006
H      53.767114999999997     51.631799999999998     44.823750000000011
H      52.150214999999996     52.235600000000005     49.766750000000009
H      52.766215000000010     53.019100000000009     44.915849999999999
H      54.660514999999997     53.236000000000004     48.882250000000006
H      47.539915000000001     47.925399999999996     45.265950000000011
H      51.987915000000008     48.896200000000000     44.721650000000004
H      51.697515000000003     50.600800000000007     44.062450000000005
H      48.229914999999998     49.765299999999996     50.206550000000000
H      49.295014999999999     48.163100000000000     43.505650000000010
H      49.713915000000000     49.449799999999996     42.152149999999999
H      48.278515000000006     49.020400000000002     43.631150000000012
H      48.470215000000003     51.366200000000006     45.606050000000003
H      50.077815000000001     52.133800000000001     45.017350000000000
H      49.278214999999996     51.769500000000008     43.612750000000013
H      46.090715000000003     44.664999999999999     46.962650000000004
H      44.501615000000001     45.354799999999997     46.787450000000000
H      45.863914999999999     49.242899999999999     45.546849999999999
H      45.421815000000002     50.523800000000008     46.506650000000000
H      42.260415000000002     46.101999999999997     47.594450000000002
H      43.285315000000004     50.896100000000004     47.319350000000007
H      40.682485000000000     47.900199999999998     48.844150000000006
H      41.595675000000000     50.450200000000002     48.889250000000011
H      55.317515000000000     53.300500000000000     46.224250000000005
H      50.044015000000002     45.587400000000002     48.178950000000007
H      48.556815000000000     45.541899999999998     49.151650000000011
H      50.920715000000008     46.211500000000001     50.303650000000012
H      50.023715000000003     46.508800000000001     52.093750000000007
H      45.802415000000003     46.565500000000000     49.111150000000002
H      46.659714999999998     46.036099999999998     53.847850000000001
H      47.179814999999998     44.439500000000002     49.475250000000010
H      45.424214999999997     43.465199999999996     53.513950000000001
H      45.912815000000002     42.699500000000000     50.845050000000008
N      49.969614999999997     50.948900000000009     49.719150000000006
O      46.830914999999997     45.294800000000002     46.750750000000004
O      47.345514999999999     47.808299999999996     49.669950000000007
