11

C      47.849149999999987     48.639049999999997     47.971744999999999
C      47.821549999999988     47.523350000000008     46.791305000000001
C      48.095050000000001     48.515550000000005     49.499375000000008
H      48.339050000000000     49.506550000000004     49.897534999999998
H      47.154949999999999     49.401049999999998     47.604175000000005
H      47.481949999999998     46.493449999999996     47.221365000000006
H      48.777850000000001     48.289249999999996     46.332725000000003
H      46.984150000000000     47.692250000000001     46.102465000000002
H      49.015850000000000     48.030950000000004     49.815724999999993
H      48.728249999999989     49.248149999999995     47.646195000000006
H      47.142249999999990     48.205050000000000     49.734935000000000
