6

C      48.504049999999985     47.686164999999988     48.358549999999994
C      47.437149999999988     48.079464999999999     47.693250000000006
H      48.856650000000002     47.795765000000003     49.387450000000001
H      49.255949999999999     47.024275000000003     47.818749999999994
H      47.277049999999988     47.653694999999999     46.612549999999999
H      46.744050000000001     48.975724999999997     48.303049999999999
