22

C      46.395799999999994     48.204899999999995     46.458849999999984
C      45.761699999999990     48.210700000000003     45.080749999999995
C      47.619500000000002     47.677400000000006     46.758849999999995
C      50.129499999999993     49.114699999999999     47.961350000000010
C      47.874199999999988     47.850800000000007     48.264049999999997
C      49.115799999999993     48.174599999999998     48.711150000000004
C      47.042400000000001     46.959699999999998     49.091250000000002
C      49.667800000000000     47.718699999999998     49.948250000000002
C      47.540299999999988     46.594999999999999     50.305549999999997
C      48.880999999999986     46.874700000000004     50.639849999999996
H      45.399999999999991     49.297700000000006     44.622950000000003
H      45.788899999999998     48.866000000000014     47.328150000000008
H      46.283099999999990     47.829000000000008     44.193649999999991
H      44.871200000000002     47.802000000000007     45.191350000000000
H      49.666600000000003     49.500400000000013     47.023150000000001
H      48.202899999999985     47.200800000000001     46.030949999999990
H      51.128799999999998     48.630300000000005     47.778549999999996
H      49.881199999999993     50.070099999999996     48.744950000000003
H      45.882799999999989     46.962200000000010     48.880150000000000
H      50.857699999999994     47.866000000000000     50.151849999999996
H      46.877799999999993     45.929900000000004     51.032049999999998
H      49.140699999999995     46.417500000000004     51.806350000000009
