6

C      47.600199999999994     48.294250000000005     47.506049999999995
C      48.323700000000002     47.717150000000011     48.585350000000005
H      46.838499999999996     47.699850000000005     47.029550000000000
H      47.267300000000006     49.298549999999999     47.956150000000008
H      49.161500000000004     48.392950000000006     48.970450000000000
H      48.613399999999999     46.701450000000001     48.288449999999997
