21

C      47.048364999999997     50.796134999999992     47.617249999999991
C      48.594664999999992     49.539855000000003     49.477750000000000
C      47.917465000000007     49.520015000000001     48.334149999999994
C      49.937465000000003     47.376414999999994     48.069649999999996
C      47.852865000000001     48.400374999999997     47.413950000000000
C      48.585664999999992     47.087855000000005     47.585849999999994
C      46.882665000000003     48.111114999999998     46.458449999999999
C      48.175364999999999     45.722735000000000     47.382350000000002
C      46.481364999999997     46.819225000000003     46.049250000000001
C      47.121764999999996     45.564674999999994     46.497850000000000
H      47.606864999999999     51.385114999999999     46.532449999999997
H      49.075964999999997     48.714195000000004     49.770150000000001
H      48.787264999999991     49.830984999999998     50.504249999999999
H      46.274164999999996     50.341084999999993     47.178249999999991
H      46.704565000000002     51.195724999999996     48.599249999999998
H      49.999664999999993     48.356494999999995     47.578949999999992
H      46.123865000000002     48.799584999999993     46.071149999999989
H      48.696764999999999     44.825660999999997     47.613649999999993
H      45.514535000000002     46.845134999999999     45.495750000000001
H      46.614564999999999     44.614885000000001     46.286349999999999
H      50.485464999999998     46.386184999999998     48.032749999999993
