6

C      47.907850000000003     48.382749999999994     48.549799999999991
C      47.633550000000000     47.466349999999998     47.558599999999998
H      47.954850000000008     46.508049999999997     47.874899999999997
H      48.571449999999999     48.165750000000003     49.592900000000000
H      47.492450000000005     49.491950000000003     48.560200000000009
H      47.428550000000001     47.471750000000000     46.407100000000000
