33

C      48.273949999999992     48.617499999999993     49.210799999999992
C      48.676549999999999     50.000399999999999     49.480399999999996
C      48.213950000000004     49.739599999999996     44.750999999999998
C      48.253350000000005     47.938900000000004     47.961899999999993
C      49.309950000000001     50.583500000000001     48.332299999999996
C      47.891050000000000     48.565799999999996     45.466000000000001
C      48.874250000000004     50.620900000000006     45.780700000000003
C      48.198850000000000     48.807999999999993     46.915799999999997
C      49.000250000000001     50.071599999999989     47.015700000000002
C      47.833250000000000     47.926299999999998     50.421200000000006
C      47.802750000000003     48.563299999999998     51.629799999999996
C      47.669550000000001     50.023200000000003     51.786300000000004
C      48.259450000000001     50.687200000000004     50.726899999999993
C      47.658050000000003     46.405100000000004     50.352600000000002
C      47.147449999999999     45.698200000000000     51.478699999999996
C      47.503850000000000     47.526300000000006     52.727499999999999
C      48.106150000000000     46.379300000000001     47.954400000000000
C      47.279550000000000     45.903099999999995     49.026900000000005
C      48.327550000000002     49.983099999999993     43.355600000000003
C      48.336350000000003     45.557299999999998     46.817000000000000
H      47.337750000000000     47.811199999999999     44.988899999999994
H      49.109950000000012     51.670000000000002     45.291900000000005
H      47.469050000000003     50.275999999999996     52.817299999999996
H      47.983650000000004     51.763099999999994     50.830800000000004
H      47.533450000000002     48.183300000000003     53.559300000000000
H      46.698350000000005     44.957899999999995     48.862199999999994
H      48.128950000000003     49.276699999999991     42.440700000000000
H      49.099550000000008     45.242599999999996     45.887599999999999
H      48.226250000000000     44.466799999999992     47.010600000000004
N      46.957550000000005     46.289000000000001     52.686900000000001
O      48.633450000000011     51.164800000000000     43.166099999999993
O      49.631850000000000     51.756199999999993     48.291800000000002
S      46.368150000000000     44.236900000000006     51.465399999999995
