6

C      48.361350000000002     48.374150000000000     47.611999999999995
C      47.331150000000008     47.561049999999994     48.137599999999999
H      49.287549999999996     48.453050000000005     48.322200000000002
H      48.043850000000006     49.055549999999997     46.835299999999997
H      47.521050000000002     46.944450000000003     49.164700000000003
H      46.712450000000004     47.159250000000000     47.282199999999996
