6

C      47.821349999999995     48.069499999999991     48.623684999999995
C      48.393149999999999     47.908700000000003     47.422895000000004
H      46.887149999999998     48.821000000000005     48.895035000000000
H      48.365950000000005     47.715799999999994     49.509625000000000
H      49.112850000000002     47.178999999999995     47.254815000000001
H      47.681350000000002     48.272200000000005     46.490375000000000
