6

C      47.614749999999994     47.535349999999994     47.867279999999994
C      48.498350000000002     48.496650000000002     48.077080000000009
H      47.786149999999999     46.736149999999995     47.031920000000000
H      46.587949999999999     47.987449999999995     48.353279999999998
H      49.412050000000001     48.432850000000002     47.686080000000004
H      48.185749999999999     49.263850000000005     48.968080000000000
