6

C      48.004299999999994     48.616849999999999     48.408649999999994
C      48.151600000000002     47.581550000000000     47.627750000000006
H      47.712400000000002     49.442649999999993     47.729349999999997
H      47.798200000000008     48.780350000000006     49.456750000000000
H      48.287599999999998     47.824550000000002     46.543250000000000
H      47.942800000000005     46.557350000000007     47.999750000000006
