57

C      47.446212499999987     46.292249999999996     48.512749999999997
C      48.247812499999988     46.293550000000003     49.723050000000001
C      51.385912499999996     48.560850000000002     47.552149999999997
C      48.102512499999996     46.833250000000000     47.311549999999997
C      49.710712499999993     46.549050000000001     49.667749999999998
C      50.173212499999998     48.291350000000001     46.674450000000007
C      49.526112499999989     47.241349999999990     47.378349999999998
C      50.393212499999997     47.059550000000002     48.596449999999990
C      46.097312499999994     45.774749999999997     48.270250000000004
C      45.530612499999997     45.293750000000003     49.434749999999994
C      46.366312499999999     45.258749999999999     50.655950000000004
C      47.807812499999990     45.548450000000003     50.891249999999999
C      45.440212499999994     45.802750000000003     46.957250000000002
C      44.005812499999998     45.456550000000000     46.856549999999999
C      43.450312499999988     44.840850000000003     47.907449999999997
C      44.013212499999987     45.126950000000001     49.339949999999988
C      46.206212499999999     46.061149999999998     45.805750000000003
C      47.246612499999991     47.040849999999999     46.174450000000007
C      49.098412499999988     48.121650000000002     44.588350000000005
C      50.211112499999992     48.937350000000002     45.341350000000006
C      50.712212500000000     45.906149999999997     50.661150000000006
C      49.979612499999995     44.963250000000002     51.688849999999988
C      48.532412500000000     44.525649999999999     51.719449999999995
C      47.964212499999995     47.498349999999995     45.098050000000001
C      51.272612499999987     44.418149999999997     52.351050000000001
C      48.073512500000000     43.262450000000001     52.147949999999994
C      52.990209499999999     52.784649999999999     46.803749999999994
C      52.318312499999998     49.526950000000006     47.043350000000004
C      52.943683499999999     51.607450000000007     45.762450000000001
C      52.308712499999992     50.418649999999992     46.000650000000007
C      53.221257500000000     52.186050000000002     44.558049999999994
C      51.107012499999989     49.938150000000000     45.033649999999994
C      52.254512499999997     51.635550000000002     43.706149999999994
C      51.284712499999991     50.517549999999993     43.754850000000005
H      53.001093500000003     49.689749999999997     47.869850000000000
H      46.070612499999989     44.738549999999996     51.508449999999996
H      42.422312499999997     44.673850000000002     47.741249999999994
H      43.825612499999998     45.959449999999997     49.736350000000002
H      46.168312499999992     45.554749999999999     44.777150000000006
H      48.963812499999996     48.231850000000001     43.392750000000007
H      51.074812500000000     46.575650000000003     51.475250000000003
H      51.466612499999989     45.665349999999997     50.034350000000003
H      51.017612499999991     43.527850000000001     52.844549999999998
H      47.592112499999992     42.295650000000002     52.450050000000005
H      42.463012499999998     45.363349999999997     45.382750000000001
H      52.067512499999999     44.365150000000000     51.603250000000003
H      51.662612499999987     44.986350000000002     53.134249999999994
H      48.777712500000000     43.066650000000003     53.058650000000000
H      53.100100500000003     52.686649999999993     47.945449999999994
H      53.577687500000003     53.704349999999998     46.562449999999998
H      52.066612499999998     53.362850000000002     46.721149999999994
H      53.557827500000009     53.129550000000002     44.012450000000001
H      52.089512499999991     52.260950000000001     42.865750000000006
H      50.590712499999988     50.216450000000002     42.927250000000001
H      43.861712499999989     43.934550000000002     49.790949999999995
N      51.380212499999992     47.879250000000006     48.614750000000001
O      43.426212499999998     45.700949999999999     45.667550000000006
