16

C      50.021470999999991     47.184249999999992     47.532200000000003
C      49.258420999999998     49.852249999999998     48.222999999999999
C      48.669781000000000     47.272149999999996     47.826100000000011
C      48.468381000000008     48.726650000000006     47.912000000000006
C      47.576430999999999     46.435850000000002     48.287100000000009
C      47.122291000000004     49.033050000000003     47.337100000000007
C      46.269011000000006     47.015050000000002     48.263099999999994
C      46.046830999999997     48.163349999999994     47.391600000000011
H      49.998811000000003     46.050250000000005     47.447800000000001
H      50.838820999999996     47.807249999999996     47.693800000000010
H      48.449531000000007     50.530450000000002     48.657899999999998
H      50.010390999999998     49.869749999999996     49.190299999999993
H      47.603771000000009     45.469549999999998     48.648800000000008
H      46.871060999999997     49.984650000000002     46.853000000000009
H      45.555581000000004     46.100650000000002     48.415100000000010
H      45.161179000000004     48.307149999999993     46.809700000000007
