6

C      48.014449999999989     47.352599999999995     47.900199999999991
C      47.376249999999999     48.250700000000002     48.321300000000008
H      47.817349999999998     46.775500000000001     46.906999999999996
H      49.394750000000002     47.472700000000010     48.075199999999995
H      47.396649999999994     49.224499999999999     47.613700000000009
H      46.605249999999998     48.172500000000007     49.093000000000004
