8

C      48.650749999999988     47.823849999999993     48.074699999999993
C      47.203049999999998     48.447550000000000     47.920000000000002
H      46.396449999999994     47.378149999999998     47.890699999999995
H      49.603550000000006     47.682949999999998     47.747799999999998
H      48.275749999999995     46.810350000000000     48.515399999999985
H      48.768549999999998     48.540550000000003     48.995099999999994
H      46.810549999999999     49.189650000000000     48.915899999999993
H      47.203650000000003     49.009349999999991     47.004900000000006
