41

C      50.478799999999993     47.679099999999991     48.499999999999993
C      50.302399999999999     47.140099999999997     49.875900000000001
C      45.807700000000004     48.678699999999999     48.628000000000000
C      45.515300000000003     47.940500000000000     49.785200000000003
C      49.501700000000000     48.550300000000000     47.974900000000005
C      49.030200000000001     46.952800000000003     50.438699999999997
C      47.037900000000000     48.912299999999995     47.929699999999997
C      46.675599999999996     47.322099999999999     50.230999999999995
C      48.136199999999995     48.248200000000004     48.435500000000005
C      47.937400000000004     47.750900000000009     49.782899999999998
C      51.674799999999998     47.514900000000004     47.671599999999998
C      52.853299999999997     48.380100000000006     50.640500000000003
C      52.769399999999997     46.861499999999999     50.620900000000006
C      51.533000000000008     46.212899999999998     50.269800000000004
C      44.704500000000003     49.606999999999992     48.364900000000006
C      43.394799999999996     49.447600000000001     48.756199999999993
C      43.317999999999998     48.682600000000001     49.953299999999999
C      50.181199999999997     49.811799999999998     47.610900000000001
C      51.984199999999994     46.286200000000001     45.227599999999995
C      51.851700000000001     46.946000000000005     46.426699999999997
C      51.637999999999998     49.975200000000008     47.478600000000000
C      52.582799999999999     48.735999999999997     48.059799999999996
C      52.690800000000003     49.020800000000001     49.504999999999995
H      48.712200000000003     46.409600000000005     51.400899999999993
H      46.751500000000000     46.979800000000004     51.234899999999996
H      52.662100000000002     48.872900000000001     51.603200000000001
H      53.569200000000002     46.122000000000000     50.533000000000001
H      51.444099999999999     45.131599999999999     50.432900000000004
H      42.568100000000001     49.953200000000002     48.469899999999996
H      42.378200000000000     48.452999999999996     50.523399999999995
H      49.493099999999998     50.785500000000006     47.465500000000006
H      52.044000000000004     46.900399999999998     44.396799999999999
H      52.816399999999994     45.441099999999999     45.424199999999999
H      53.621800000000000     48.847500000000004     47.528099999999995
H      45.823100000000004     50.868400000000001     47.470699999999994
H      46.676700000000004     50.049600000000005     46.351299999999995
H      52.614799999999995     49.966599999999993     49.568200000000004
N      44.230600000000003     47.966000000000001     50.441800000000001
O      52.419899999999998     50.788599999999995     47.088099999999997
O      44.932099999999998     50.735499999999995     47.575800000000001
O      47.207100000000004     49.317500000000003     46.655400000000000
