5

C      48.046999999999997     47.997399999999985     48.240049999999997
H      47.362200000000001     47.314399999999992     48.819250000000004
H      48.933499999999995     48.685600000000008     48.300550000000008
H      47.066500000000005     48.663700000000006     47.937649999999998
H      48.364800000000002     48.001499999999993     47.180749999999996
