39

C      49.486349999999987     50.014449999999989     47.336299999999980
C      48.902949999999997     50.253749999999997     48.648799999999994
C      47.585649999999994     44.702749999999995     47.467200000000005
C      46.909249999999993     45.641949999999994     48.328400000000002
C      49.328849999999996     48.760149999999996     46.751900000000006
C      48.117950000000000     49.184049999999999     49.344800000000006
C      49.067050000000002     46.429150000000007     46.778999999999996
C      47.335349999999998     46.754750000000001     49.163700000000006
C      48.568750000000001     47.652850000000001     47.429299999999998
C      48.073749999999997     47.838449999999995     48.674499999999995
C      49.836350000000003     48.725549999999998     45.390900000000002
C      49.558950000000003     46.327050000000000     45.505499999999998
C      49.012149999999998     45.127150000000000     47.709800000000001
C      47.808749999999996     49.488950000000003     50.708500000000001
C      47.268149999999999     48.329449999999994     51.423800000000000
C      46.403150000000004     47.366749999999996     50.130099999999999
C      50.352650000000004     51.277950000000004     47.265500000000003
C      50.202549999999995     52.113150000000005     48.544300000000007
C      49.175750000000001     51.533349999999999     49.185900000000004
C      45.446249999999999     45.266350000000003     48.372200000000007
C      49.836450000000006     47.535049999999998     44.701700000000002
H      49.874050000000004     49.583250000000007     44.862399999999994
H      49.112950000000005     45.364649999999997     45.045800000000000
H      49.705949999999994     44.261750000000006     47.350300000000004
H      49.503849999999993     45.174549999999996     48.841200000000001
H      48.363650000000000     47.800849999999997     51.495900000000006
H      46.535850000000003     48.512050000000002     52.289500000000004
H      45.731550000000006     47.860249999999994     49.563299999999998
H      45.955450000000006     46.680350000000004     51.097200000000001
H      48.619750000000003     51.964950000000002     49.971900000000005
H      48.268949999999997     50.447149999999993     51.493700000000004
H      50.787349999999996     53.026550000000000     48.737899999999996
H      47.811249999999994     42.973450000000000     46.558400000000006
H      51.061150000000005     51.396950000000004     46.338800000000006
H      44.938849999999995     46.255049999999997     48.720299999999995
H      45.141849999999998     44.678749999999994     47.247100000000003
H      45.093049999999998     44.635149999999996     49.203699999999998
H      49.892549999999993     47.439650000000000     43.710499999999996
O      46.998749999999994     43.478949999999998     46.901399999999995
