6

C      48.303149999999988     47.462703499999989     48.136149999999986
C      47.333149999999996     48.284353499999995     47.712350000000001
H      49.175149999999995     47.208898499999989     47.459350000000001
H      48.199649999999998     47.189706500000000     49.193650000000005
H      47.229649999999999     48.810293500000000     46.806349999999995
H      46.824850000000005     48.778273499999983     48.598450000000000
