18

C      46.256649999999993     46.808549999999997     49.478574999999992
C      47.986349999999995     49.619349999999997     49.751080000000009
C      47.296450000000000     47.431150000000002     48.547950000000021
C      48.338649999999994     48.385649999999998     48.942332000000000
C      47.520550000000007     46.527450000000002     47.453950000000027
C      49.485650000000000     48.605249999999998     48.032350000000001
C      48.453750000000007     46.826449999999994     46.485050000000008
C      49.038550000000008     48.179950000000005     46.679249999999996
H      47.318950000000008     50.250850000000000     48.933588000000000
H      45.695749999999997     45.836150000000004     49.035015999999999
H      46.744049999999994     45.983649999999997     50.218679999999999
H      47.065850000000005     49.604249999999993     50.373850000000004
H      48.928850000000004     49.941350000000000     50.332029999999996
H      46.818850000000005     45.749150000000000     47.073750000000025
H      50.304250000000003     49.384550000000004     48.317349999999998
H      48.665250000000007     46.104450000000000     45.626149999999996
H      49.033149999999999     48.861149999999995     45.745750000000022
H      45.772749999999995     47.732349999999997     50.096250000000005
