6

C      48.120199999999990     48.578999999999994     48.263749999999995
C      48.468800000000002     47.289200000000008     48.087350000000001
H      48.531599999999997     49.550600000000003     47.997450000000001
H      47.033900000000003     48.773300000000006     48.419950000000000
H      48.966099999999997     46.805999999999997     47.227249999999998
H      48.011700000000005     46.449399999999997     48.772750000000002
