6

C      48.274899999999995     47.325399999999995     47.984749999999991
C      47.818700000000007     48.509300000000010     47.917250000000003
H      47.727500000000006     46.654100000000000     47.240950000000005
H      48.809399999999997     46.805800000000005     48.890650000000001
H      47.190600000000003     48.744300000000010     47.109349999999999
H      47.894300000000001     49.345900000000000     48.730350000000008
