19

C      51.352449999999983     48.049599999999998     48.097650000000002
C      49.899450000000002     48.449400000000004     47.774250000000002
C      48.989949999999993     47.374299999999998     48.143350000000005
C      47.109449999999995     49.225600000000007     48.024250000000002
C      47.714050000000000     47.931600000000003     47.675350000000002
C      45.705550000000002     49.280800000000006     47.747149999999998
C      46.916649999999990     46.754500000000000     47.331850000000010
C      45.022949999999994     48.203700000000005     47.135050000000000
C      45.613749999999996     47.042700000000004     47.089750000000002
H      51.866549999999989     48.822300000000006     47.383749999999999
H      51.638449999999992     48.434999999999995     49.121749999999999
H      49.412849999999992     46.662500000000001     48.877350000000000
H      49.784250000000000     49.227800000000002     46.878250000000001
H      52.004750000000001     47.362900000000003     47.350550000000005
H      47.541349999999994     50.167800000000000     48.485850000000006
H      45.098749999999995     50.166900000000005     47.982150000000011
H      47.627249999999989     45.832200000000000     47.100950000000005
H      43.995249999999999     48.261299999999999     46.964649999999999
H      44.727949999999993     46.227699999999999     46.897550000000003
