18

C      50.370500000000000     46.710349999999991     48.429699999999997
C      49.461900000000000     49.412849999999999     47.082999999999991
C      48.927300000000002     47.226649999999999     48.334200000000003
C      48.534999999999997     48.273849999999996     47.570199999999993
C      48.104100000000003     46.291549999999994     48.989500000000000
C      47.102999999999994     48.609249999999996     47.770800000000001
C      46.712000000000003     46.680649999999993     49.294000000000004
C      46.345699999999994     47.937549999999995     48.705800000000004
H      49.017499999999998     50.395249999999997     47.486600000000003
H      50.425300000000007     45.875749999999996     48.996099999999991
H      50.834299999999999     47.784550000000003     48.767199999999995
H      50.568700000000007     46.243450000000003     47.333800000000004
H      49.790300000000002     49.490450000000003     46.116300000000003
H      50.391599999999997     49.473450000000000     47.687599999999996
H      48.525999999999996     45.604750000000003     49.883699999999997
H      46.880700000000004     49.594349999999999     47.309099999999994
H      46.117000000000004     46.120950000000001     49.833400000000005
H      45.165700000000001     47.960950000000004     48.787399999999998
