5

C      48.209949999999992     47.946299999999994     47.597949999999997
H      47.211849999999998     47.968299999999992     47.924150000000004
H      48.788150000000002     47.908799999999999     48.612349999999999
H      48.313150000000007     46.880299999999998     47.387650000000001
H      48.389850000000010     49.119700000000002     47.464750000000002
