20

C      49.447799999999987     45.555600000000005     48.586299999999980
C      45.875200000000000     48.315000000000012     46.997099999999996
C      48.463199999999993     46.421100000000010     48.989099999999986
C      46.230399999999996     48.270800000000008     48.295299999999990
C      48.611100000000000     47.847800000000007     49.279899999999991
C      47.640599999999999     48.576800000000006     48.506499999999996
C      49.930000000000000     48.425800000000010     49.330599999999997
C      47.957299999999996     50.004100000000008     47.911799999999992
C      50.285199999999996     49.590500000000006     48.763999999999989
C      49.244899999999994     50.565500000000000     48.338999999999992
H      50.405399999999993     46.021900000000002     48.322099999999999
H      46.612000000000002     48.251400000000004     46.266900000000000
H      44.693800000000003     47.983500000000006     46.910999999999994
H      47.507699999999993     45.881100000000004     49.262099999999997
H      49.625399999999992     44.505099999999999     48.846299999999992
H      45.511099999999992     47.865200000000002     49.238099999999996
H      50.682200000000002     47.734800000000007     49.733100000000000
H      46.951599999999992     50.422300000000007     48.061899999999987
H      51.306199999999997     49.941400000000002     48.812799999999989
H      49.474499999999999     51.494900000000001     48.764399999999988
