18

C      49.223699999999994     48.305949999999996     46.269149999999996
C      48.360399999999998     49.837450000000004     49.355349999999994
C      48.269799999999996     47.803150000000002     47.387750000000004
C      47.772599999999997     48.671049999999994     48.493550000000006
C      47.406500000000001     46.577550000000002     47.263150000000003
C      46.926299999999998     48.263750000000002     49.514150000000008
C      46.614899999999999     46.208150000000003     48.242049999999999
C      46.344000000000001     47.017150000000001     49.443750000000001
H      49.140299999999996     50.539749999999998     48.906550000000003
H      47.697899999999997     50.774749999999997     49.477349999999994
H      48.663800000000002     49.044950000000000     45.729350000000004
H      49.135999999999996     47.285449999999997     45.596150000000002
H      50.292999999999999     48.512550000000005     46.311350000000012
H      48.731999999999999     49.343050000000005     50.387050000000002
H      47.538600000000002     45.966250000000002     46.312649999999998
H      46.426000000000002     48.774050000000003     50.403849999999998
H      46.028999999999996     45.225250000000003     47.904550000000000
H      45.707000000000001     46.870249999999999     50.169450000000005
