6

C      48.556099999999994     47.631249999999987     48.031300000000002
C      47.239100000000001     48.014449999999997     48.325099999999999
H      49.268400000000000     46.941350000000000     48.545200000000001
H      49.311199999999999     48.275250000000000     47.300800000000002
H      46.688800000000001     47.149349999999998     48.699199999999998
H      46.756000000000000     49.058650000000000     48.399900000000009
