5

C      48.361899999999991     48.106999999999992     48.322549999999993
H      48.833000000000006     47.596700000000006     47.362749999999998
H      47.059599999999996     48.184299999999993     48.321450000000006
H      48.086099999999995     47.100200000000001     48.637250000000002
H      48.940400000000004     48.899799999999999     48.589949999999995
