6

C      48.149549999999991     48.289899999999996     47.276899999999991
C      47.926450000000003     47.780099999999997     48.408199999999994
H      47.244450000000001     48.441900000000004     46.891799999999996
H      49.090850000000003     48.651899999999998     46.832599999999999
H      48.745049999999992     47.665500000000002     49.167400000000001
H      46.909149999999997     47.348100000000002     48.529899999999998
