20

C      48.923149999999993     45.923814999999991     50.402399999999986
C      46.114550000000001     49.673884999999999     49.272799999999997
C      49.188349999999993     46.977634999999992     49.594500000000004
C      46.423549999999999     48.259184999999988     49.375700000000002
C      48.499749999999999     47.399994999999990     48.236100000000000
C      47.372250000000001     48.236474999999984     48.178099999999993
C      49.410949999999993     47.282224999999997     47.207699999999996
C      47.291850000000004     49.154764999999998     47.054200000000002
C      49.270149999999994     47.915184999999994     46.075600000000001
C      48.198850000000000     48.944434999999999     45.948799999999999
H      49.775550000000003     45.568105000000003     51.110199999999999
H      47.924749999999996     45.586505000000002     50.051299999999991
H      45.514249999999997     50.290284999999997     48.470700000000001
H      45.968150000000001     50.431894999999997     50.109900000000003
H      50.104149999999997     47.456704999999985     50.050199999999997
H      45.638749999999995     47.526924999999991     49.921900000000001
H      50.485750000000003     46.611075000000000     47.329799999999999
H      46.636850000000003     49.918804999999992     47.133199999999995
H      49.981749999999998     47.691034999999999     45.361499999999999
H      48.208250000000000     49.184264999999996     44.889800000000001
