17

C      46.461299999999994     49.552799999999998     47.388199999999991
C      49.468299999999999     50.035200000000003     48.444000000000003
C      47.273899999999998     48.599999999999994     47.438499999999991
C      48.602499999999992     48.911699999999996     47.866399999999999
C      46.753900000000002     47.325500000000005     47.497999999999998
C      49.440999999999988     47.894000000000005     47.585499999999996
C      47.685599999999994     46.274100000000004     47.215199999999996
C      49.091499999999996     46.575900000000004     47.221999999999994
H      49.093699999999998     50.798800000000000     49.068199999999990
H      46.943099999999987     50.443600000000004     47.481700000000004
H      45.461799999999997     49.815500000000000     47.493200000000002
H      49.857699999999994     49.643500000000003     49.234200000000001
H      50.538200000000003     50.312500000000000     47.785299999999992
H      45.748300000000000     47.206699999999998     47.701599999999999
H      50.536599999999993     47.787899999999993     47.932699999999997
H      47.278199999999998     45.201200000000000     46.765799999999999
H      49.986099999999993     45.867499999999993     47.129799999999996
