8

C      48.537800000000004     47.620249999999999     48.077399999999997
C      47.404000000000003     48.465249999999997     47.291300000000000
H      48.226800000000004     47.679850000000002     49.096799999999995
H      49.497999999999998     48.082749999999990     48.354700000000001
H      48.380000000000003     46.531350000000003     47.848400000000005
H      46.513600000000004     48.938749999999999     47.820000000000000
H      47.609299999999998     49.468649999999997     46.995100000000001
H      46.502000000000002     47.983249999999998     46.903200000000005
