31

C      50.450289999999981     46.544699999999992     49.140949999999989
C      49.409049999999986     46.540799999999997     48.005649999999996
C      48.117759999999983     45.927799999999998     48.205249999999999
C      49.598449999999985     47.264699999999998     46.765049999999995
C      47.369545999999985     45.109899999999989     47.149349999999998
C      48.747139999999987     46.690999999999995     45.808049999999994
C      47.996709999999986     45.513399999999997     46.026350000000001
C      45.558329999999991     47.752999999999993     47.423949999999998
C      47.524959999999986     46.525699999999993     49.524449999999995
C      46.732377999999983     48.264899999999990     48.229849999999999
C      47.463829999999987     48.024899999999995     49.459649999999989
C      46.911185999999987     49.724899999999998     48.046049999999994
C      48.058579999999985     48.904999999999994     50.379849999999998
C      47.759419999999984     50.606399999999987     48.734749999999998
C      48.325859999999984     50.187199999999997     49.944749999999992
H      49.887869999999985     46.072599999999987     49.912450000000000
H      50.203469999999989     47.368299999999998     49.719049999999989
H      51.514669999999988     46.468699999999991     49.746350000000000
H      50.447339999999990     47.276999999999994     46.114249999999998
H      46.375129999999992     44.436000000000000     47.242849999999997
H      49.080439999999989     47.483299999999993     44.850349999999999
H      47.554519999999989     45.254099999999987     44.922149999999995
H      45.566829999999975     48.468999999999987     46.507050000000000
H      45.468930000000007     46.687199999999997     47.055049999999994
H      46.432729999999985     46.090100000000000     49.818049999999992
H      48.013409999999986     46.140899999999995     50.444550000000000
H      46.415529999999990     50.214999999999996     47.102249999999998
H      48.540329999999983     48.476099999999995     51.149650000000001
H      47.887099999999982     51.564000000000000     48.325449999999996
H      49.300449999999984     50.651499999999992     50.326749999999997
H      44.485330000000012     47.814799999999998     47.731949999999998
