34

C      47.945729999999990     50.941099999999992     47.574949999999987
C      50.889870000000002     50.345099999999995     47.632749999999994
C      48.653959999999998     50.782500000000006     48.884049999999995
C      50.024299999999997     50.426499999999997     48.914049999999996
C      48.028109999999998     50.681699999999999     50.174450000000000
C      50.714100000000002     49.767100000000006     49.913949999999993
C      48.729860000000002     50.089899999999993     51.281950000000002
C      50.096639999999994     49.665699999999994     51.209650000000003
C      44.891550000000002     48.483499999999999     44.507249999999992
C      47.738190000000003     49.849700000000006     46.801750000000006
C      46.110239999999997     48.579500000000003     45.455249999999999
C      46.935009999999998     49.836599999999997     45.548849999999995
C      46.679690000000001     47.316099999999999     45.773350000000001
C      46.984980000000000     50.825499999999998     44.627950000000006
C      46.819879999999998     45.853699999999996     45.803850000000004
C      47.543750000000003     45.156799999999997     46.808150000000005
H      48.466409999999996     45.542099999999998     47.237850000000002
H      47.350430000000003     51.791900000000005     44.818549999999995
H      50.548029999999997     49.234699999999997     52.100950000000005
H      44.058679999999995     48.919599999999996     45.021149999999999
H      47.601360000000000     51.969199999999994     47.368649999999995
H      48.386189999999999     48.963500000000003     47.301549999999999
H      50.340550000000000     49.999500000000005     46.738949999999996
H      51.033819999999992     51.570299999999996     47.714449999999992
H      46.913260000000001     50.731100000000005     50.170849999999994
H      51.713319999999996     49.299699999999994     49.889350000000000
H      48.189999999999998     49.813300000000005     52.253250000000001
H      44.618780000000001     47.414499999999997     43.930550000000004
H      45.005350000000000     49.151000000000003     43.746749999999999
H      51.941320000000005     49.849899999999998     47.836350000000003
H      47.625029999999995     47.732000000000006     45.949049999999993
H      46.333079999999995     50.922900000000006     43.784249999999993
H      46.267449999999997     45.264400000000002     45.087949999999999
H      47.708730000000003     44.030800000000006     46.434649999999998
