6

C      47.974499999999999     47.926749999999998     47.870499999999993
C      47.965599999999995     48.292549999999999     48.985499999999995
C      47.866399999999999     47.726050000000008     46.666500000000006
H      48.374200000000002     48.648550000000007     49.890899999999995
H      47.109600000000000     47.169649999999997     46.185399999999994
H      48.890400000000000     48.830350000000003     46.109100000000005
