17

C      45.900399999999991     48.119142999999994     46.791749999999993
C      46.859200000000001     47.623182999999997     49.794149999999995
C      47.258699999999990     47.892432999999997     47.463450000000002
C      47.537799999999990     48.013703000000000     48.863050000000008
C      48.215400000000002     47.462302999999999     46.405650000000001
C      48.894399999999990     47.905943000000001     49.339649999999999
C      49.525800000000004     47.536802999999999     46.826050000000002
C      49.855899999999991     47.774653000000001     48.233750000000008
H      45.953699999999998     47.372588000000000     46.060750000000006
H      45.711599999999990     49.181632999999998     46.267749999999999
H      45.709499999999991     47.723053000000000     49.795949999999998
H      45.176900000000003     48.256413000000002     47.357350000000004
H      47.748400000000004     47.326051999999997     45.545049999999996
H      49.027199999999993     47.984642999999998     50.454950000000004
H      50.365299999999991     47.182172000000001     46.149049999999995
H      50.823099999999997     47.573723000000001     48.706449999999997
H      47.322499999999991     46.818367000000002     50.330850000000005
