19

C      50.155649999999987     45.974189999999993     47.574749999999995
C      48.999150000000000     49.974190000000007     47.175650000000005
C      49.561049999999994     47.375940000000000     47.679149999999993
C      47.986149999999995     49.326390000000004     48.052650000000000
C      48.359150000000000     47.949290000000005     48.115150000000000
C      46.885750000000002     49.940690000000004     48.579549999999998
C      47.346750000000000     47.121800000000007     48.861649999999997
C      45.820650000000001     49.248090000000005     49.245849999999990
C      46.217449999999999     47.883520000000004     49.382850000000005
H      49.037049999999994     51.025890000000004     47.474649999999997
H      50.083849999999998     49.568089999999998     47.158249999999995
H      48.828850000000003     49.517890000000008     46.183750000000003
H      50.445549999999997     48.075940000000003     47.945049999999995
H      46.739549999999994     50.932990000000004     48.405150000000006
H      47.496750000000006     46.076200000000014     49.141149999999996
H      44.931849999999997     49.815989999999999     49.389749999999992
H      45.658450000000002     47.189509999999999     49.816249999999997
H      51.068150000000003     46.453850000000003     47.219350000000006
O      49.551249999999996     44.974109999999996     47.354250000000008
