6

C      48.035249999999991     47.194499999999991     47.378850000000000
C      47.694850000000002     47.737999999999992     48.659949999999995
H      47.318250000000006     47.164700000000003     46.634050000000002
H      48.873350000000002     47.840399999999995     46.995350000000002
H      47.453649999999996     48.835299999999997     48.835949999999997
H      47.126649999999998     47.201599999999992     49.365949999999998
