5

C      47.959899999999990     48.008799999999994     48.103549999999998
H      47.106099999999998     48.811399999999999     48.167150000000007
H      48.893900000000002     48.030099999999997     48.795050000000003
H      47.479399999999998     47.188600000000001     48.812049999999999
H      48.243099999999998     47.620899999999999     47.187950000000001
