116

C      55.528199999999991     44.501549999999995     51.028649999999992
C      55.316899999999997     44.829050000000002     52.405749999999998
C      52.703099999999999     48.832749999999997     51.099849999999996
C      55.254199999999997     45.665050000000001     50.109949999999998
C      54.463400000000000     45.984550000000006     52.718750000000000
C      53.424700000000001     47.237850000000002     49.420650000000002
C      53.324299999999994     48.225550000000005     52.138849999999998
C      54.212400000000002     46.672450000000005     50.451149999999998
C      53.906899999999993     46.966650000000008     51.778750000000002
C      56.025000000000006     43.181750000000001     50.613349999999997
C      56.190199999999997     42.228249999999996     51.673549999999992
C      55.735900000000001     42.517450000000004     53.077050000000000
C      55.823200000000000     43.913649999999997     53.431550000000001
C      56.804199999999994     43.164949999999997     49.407850000000003
C      57.445499999999996     41.780049999999996     49.157350000000001
C      57.655799999999999     40.871450000000003     50.251049999999999
C      56.591799999999992     41.149549999999998     51.339950000000002
C      56.728899999999996     44.229450000000007     48.477950000000000
C      56.159599999999998     45.571249999999999     48.912750000000003
C      56.052999999999997     41.600749999999998     54.147850000000005
C      56.533900000000003     42.140549999999998     55.341850000000001
C      56.491799999999998     43.527350000000006     55.640250000000009
C      55.689399999999999     44.491650000000000     54.757049999999992
C      54.084000000000003     45.989650000000005     54.164149999999999
C      54.866399999999999     45.493950000000005     55.147950000000002
C      53.593599999999995     46.507550000000002     47.997349999999997
C      40.715699999999998     52.536949999999997     41.108950000000000
C      41.568100000000001     53.679549999999999     40.982749999999996
C      44.304099999999998     50.345450000000007     43.409250000000000
C      45.397399999999998     50.884850000000007     42.538950000000000
C      40.978899999999996     51.351050000000008     41.731250000000003
C      42.969600000000000     53.230750000000008     40.797550000000001
C      42.945899999999995     50.562850000000005     43.181650000000005
C      44.875299999999996     51.971550000000001     41.655450000000002
C      42.330699999999993     51.348950000000009     42.201850000000000
C      43.417400000000001     52.008450000000003     41.338549999999998
C      39.316599999999994     52.732350000000004     40.794250000000005
C      38.895399999999995     54.076650000000008     40.221150000000002
C      39.953599999999994     55.134250000000002     39.900050000000000
C      41.240400000000001     54.901750000000000     40.432050000000004
C      44.686700000000002     49.312450000000005     44.368350000000000
C      46.056799999999996     49.120449999999998     44.728050000000003
C      47.033900000000003     49.404950000000007     43.714950000000002
C      46.732799999999997     50.413150000000009     42.806650000000005
C      42.255899999999997     56.065149999999996     40.233249999999998
C      46.253699999999995     47.771650000000001     45.509950000000003
C      49.332200000000000     48.304049999999997     46.812049999999999
C      48.466200000000001     47.365450000000003     46.350149999999999
C      45.621699999999997     50.945950000000003     49.134349999999998
C      44.687299999999993     49.968449999999997     48.547750000000001
C      48.936999999999998     49.361849999999997     47.703850000000003
C      47.049799999999998     47.817749999999997     46.438249999999996
C      46.957099999999997     50.802950000000003     48.720050000000001
C      45.168899999999994     48.734550000000006     47.827750000000002
C      47.563000000000002     49.577450000000006     48.158149999999999
C      46.488100000000003     48.695650000000008     47.503050000000002
C      50.892899999999997     48.130450000000003     46.701549999999997
C      51.441599999999994     47.034550000000003     45.864649999999997
C      50.617699999999999     45.902049999999996     45.837249999999997
C      49.217399999999998     46.108650000000004     46.004350000000002
C      45.199500000000000     52.152450000000009     49.914850000000001
C      43.852599999999995     52.046950000000002     50.148350000000001
C      42.898899999999998     51.060750000000006     49.729050000000001
C      43.346699999999998     49.887549999999997     48.991849999999999
C      51.734800000000000     49.058349999999997     47.038249999999998
C      53.276200000000003     49.005150000000008     46.931849999999997
C      53.698799999999999     47.517350000000000     46.684449999999998
C      52.887799999999999     46.825150000000001     45.587049999999998
C      49.807000000000002     50.250350000000005     48.361950000000000
C      51.142299999999999     50.076749999999997     47.917050000000003
C      53.043199999999999     45.576450000000001     44.743749999999999
C      52.685599999999994     48.469650000000009     49.747349999999997
H      53.009000000000000     48.648750000000000     53.108049999999992
H      57.873699999999999     41.492150000000002     48.053950000000000
H      58.215299999999999     39.938150000000000     50.389550000000000
H      57.098799999999997     44.119350000000004     47.534950000000002
H      56.165700000000001     46.285550000000008     48.210250000000002
H      56.451400000000007     40.705850000000005     54.154649999999990
H      57.249699999999997     41.569449999999996     55.945650000000001
H      56.902599999999993     43.557850000000009     56.720749999999995
H      53.057599999999994     46.452649999999998     54.466450000000009
H      54.685199999999995     45.444550000000000     56.245750000000001
H      55.792999999999992     39.334049999999998     52.257350000000002
H      52.726500000000001     45.779050000000005     47.977150000000002
H      54.521799999999999     45.904350000000001     48.084249999999997
H      54.702100000000002     47.169950000000007     46.482849999999999
H      40.251599999999996     50.509850000000007     41.944249999999997
H      43.587599999999995     54.026950000000006     40.436450000000001
H      42.292699999999996     50.170850000000009     43.994150000000005
H      45.782100000000000     52.693249999999999     41.387349999999998
H      38.393700000000003     52.121050000000004     41.096350000000001
H      37.784700000000001     54.294850000000004     39.955050000000000
H      39.742500000000000     56.122050000000009     39.506950000000003
H      48.226500000000001     49.168450000000000     43.825249999999997
H      47.521400000000000     50.559850000000004     42.143349999999998
H      43.373199999999997     56.061950000000003     40.553349999999995
H      46.166499999999999     46.790849999999999     45.044849999999997
H      47.436099999999996     51.844550000000005     48.860149999999997
H      44.359299999999998     48.352750000000007     47.181849999999997
H      50.803300000000000     44.929250000000003     45.388950000000001
H      48.594899999999996     45.349449999999997     45.700850000000003
H      45.954899999999995     52.704250000000009     50.653550000000003
H      43.692599999999999     52.708750000000002     51.132949999999994
H      41.797200000000004     51.091250000000009     50.334150000000001
H      42.647800000000004     49.105150000000002     48.677250000000001
H      53.225499999999997     49.605550000000001     46.110650000000000
H      53.759500000000003     49.336149999999996     47.882550000000002
H      49.600899999999996     51.183150000000005     48.779350000000001
H      51.875399999999999     50.631149999999998     48.473950000000002
H      53.558999999999997     44.684550000000009     45.190550000000002
H      51.736999999999995     48.960150000000006     49.329149999999998
H      52.190100000000001     49.689850000000000     51.401049999999998
H      52.862399999999994     45.474950000000000     43.555750000000003
O      56.338700000000003     40.203849999999996     52.388050000000000
O      41.873599999999996     56.665950000000002     39.279250000000005
O      43.973699999999994     48.614750000000008     45.071449999999999
