16

C      46.586134999999992     48.984249999999989     49.393999999999991
C      49.398805000000010     49.509250000000009     48.911699999999996
C      47.230825000000003     48.109650000000002     48.798099999999991
C      48.681804999999997     48.407749999999993     48.370999999999995
C      46.614615000000001     46.873149999999995     48.376800000000003
C      49.164704999999998     47.494150000000005     47.334299999999999
C      47.087805000000003     46.235349999999997     47.257399999999990
C      48.243005000000011     46.673850000000002     46.629499999999993
H      45.738735000000005     49.612650000000002     49.073599999999999
H      46.990945000000004     49.286649999999995     50.404499999999999
H      49.238005000000001     50.531149999999997     49.336100000000002
H      50.407105000000001     49.306350000000009     48.563699999999997
H      45.592894999999999     46.617049999999992     48.689099999999996
H      49.900404999999999     47.956350000000000     46.731899999999996
H      46.457785000000001     45.468850000000003     46.802499999999995
H      48.274104999999992     46.044449999999998     45.595500000000001
