30

C      46.655349999999984     47.184799999999996     47.652449999999988
C      46.323449999999994     46.484099999999998     48.860750000000003
C      50.865150000000000     49.057199999999995     49.800750000000001
C      47.885550000000009     48.067299999999989     47.730550000000001
C      47.359949999999998     46.589299999999994     49.942649999999993
C      49.767250000000004     49.164500000000004     48.813649999999988
C      48.662750000000003     48.130799999999994     48.833849999999991
C      48.523850000000010     47.327699999999993     50.064050000000002
C      48.487949999999998     49.131500000000003     46.845349999999996
C      50.211650000000006     51.055199999999999     46.840249999999990
C      49.637250000000009     49.802199999999999     47.524549999999998
C      46.037149999999997     47.364199999999997     46.450949999999999
C      45.534049999999993     45.337400000000002     48.753549999999997
C      45.379149999999996     44.567200000000000     47.806449999999991
C      48.331249999999997     49.396199999999993     45.443549999999995
C      50.603449999999995     47.956500000000005     50.701549999999990
H      45.602050000000006     44.335800000000006     50.254349999999995
H      47.143050000000002     46.370900000000006     50.945349999999998
H      50.882149999999996     50.846599999999995     45.948649999999994
H      50.613550000000004     51.998099999999994     47.258949999999992
H      49.437349999999995     51.738500000000002     46.271849999999993
H      49.221450000000004     49.820099999999996     44.573850000000000
H      46.118250000000003     44.532399999999996     46.909649999999992
H      44.391549999999995     44.001900000000006     47.591149999999992
H      47.685850000000002     48.968099999999993     44.710549999999991
H      51.484549999999999     48.037199999999999     51.426150000000000
H      51.608450000000005     49.881699999999995     50.121350000000000
N      49.654749999999993     47.158699999999996     50.950749999999992
O      45.535950000000000     47.794799999999995     45.416349999999994
O      44.983750000000001     44.764300000000006     49.892149999999994
