5

C      47.938350000000000     48.170049999999989     48.068019999999990
H      48.537350000000011     48.438749999999992     47.153849999999998
H      48.739049999999999     48.142049999999998     48.846150000000002
H      47.260950000000001     48.800450000000005     48.322499999999998
H      47.574150000000010     47.199549999999995     47.823299999999996
