18

C      47.063214999999992     46.337724999999992     45.907699999999991
C      48.991875000000007     49.223534999999998     46.782900000000005
C      47.332714999999993     47.214364999999987     47.173399999999994
C      47.662115000000000     48.565434999999994     47.376399999999997
C      46.667315000000002     46.635864999999995     48.189299999999996
C      47.448515000000000     49.229034999999996     48.690999999999995
C      46.826115000000001     47.162954999999997     49.579100000000004
C      46.666415000000001     48.527434999999997     49.652600000000000
H      49.771084999999999     49.010835000000000     47.311100000000003
H      48.024062999999998     46.096454999999992     45.552600000000005
H      46.228915000000001     45.671565000000001     46.340499999999999
H      49.081555000000009     50.405535000000000     47.116499999999995
H      49.066905000000006     49.357434999999995     45.816499999999998
H      46.330214999999995     45.594465000000000     48.446000000000005
H      47.498215000000002     50.252934999999994     48.617299999999993
H      46.529714999999996     46.365555000000001     50.210599999999992
H      46.427014999999997     49.060334999999995     50.698900000000002
H      46.644215000000003     47.244834999999995     45.301099999999998
