5

C      47.876249999999999     48.358649999999990     47.824949999999994
H      47.125150000000005     48.821649999999998     47.183050000000001
H      48.874849999999995     48.405349999999999     47.750250000000001
H      47.789650000000009     47.137850000000000     47.989150000000009
H      47.544849999999997     48.862150000000000     48.816949999999999
