11

C      48.551849999999995     48.696749999999994     48.619899999999987
C      47.185950000000005     47.077249999999999     47.392200000000003
C      47.723950000000002     48.474250000000005     47.334000000000003
H      48.325550000000007     48.722050000000003     49.620999999999995
H      49.023350000000008     49.638150000000003     48.394199999999998
H      49.528250000000000     48.080850000000005     48.281599999999997
H      48.030250000000009     46.361849999999997     47.402900000000002
H      47.045250000000010     46.751150000000003     48.485600000000005
H      46.471750000000000     46.836450000000006     46.645200000000003
H      46.870350000000002     49.131750000000004     47.168999999999997
H      48.139450000000011     48.806550000000001     46.379000000000005
