19

C      45.022349999999989     49.886699999999990     48.089759999999984
C      46.298150000000000     49.703900000000004     47.757750000000001
C      47.824149999999996     49.627099999999999     47.203289999999996
C      47.780849999999994     47.337100000000007     49.113519999999994
C      48.631149999999998     48.580900000000000     47.265369999999990
C      48.594749999999998     47.348600000000005     48.195650000000001
C      49.975850000000001     48.680500000000009     46.640959999999993
C      49.445050000000002     46.236800000000002     47.942819999999998
C      50.778250000000007     47.588900000000010     46.417000000000002
C      50.321949999999994     46.301800000000000     46.882829999999998
H      47.026750000000000     46.421599999999998     49.092230000000001
H      44.448649999999994     50.628900000000016     47.638689999999997
H      44.490349999999999     49.305099999999996     48.848399999999998
H      48.046150000000004     50.688299999999998     46.569189999999992
H      48.081449999999997     47.883700000000005     50.177000000000007
H      50.046849999999999     49.476600000000005     45.822999999999993
H      49.496450000000003     45.397800000000004     48.531430000000000
H      51.551350000000006     47.691200000000009     45.848119999999994
H      50.829649999999994     45.311700000000002     46.603029999999990
