47

C      48.392984999999996     50.587350000000001     52.427649999999993
C      46.715434999999999     48.345649999999999     50.472350000000006
C      47.646925000000003     47.203750000000007     50.610550000000003
C      47.016604999999998     48.194150000000000     45.599450000000004
C      46.942774999999997     46.691449999999996     45.930549999999997
C      47.005034999999999     49.166050000000006     49.243250000000003
C      48.387734999999999     46.567550000000004     49.494349999999997
C      47.439805000000000     49.166350000000001     46.571250000000006
C      47.640895000000000     46.289350000000006     47.099649999999997
C      47.435654999999997     48.568649999999998     47.849850000000004
C      47.814675000000001     47.188750000000006     48.198949999999996
C      46.408925000000004     49.072949999999999     51.684550000000002
C      45.609895000000002     48.105950000000000     52.398750000000007
C      46.398454999999998     46.938549999999999     52.531850000000006
C      47.592284999999997     46.512549999999997     51.943750000000001
C      46.442264999999999     48.429150000000000     44.302250000000001
C      45.770245000000003     47.477750000000007     43.478250000000003
C      45.734394999999999     46.132349999999995     43.947150000000001
C      46.293705000000003     45.786450000000009     45.186750000000004
C      46.768394999999998     50.444250000000004     49.391950000000001
C      46.955835000000000     50.460749999999997     52.029550000000000
C      48.943474999999999     45.280750000000005     49.509650000000001
C      49.177285000000005     44.846849999999996     50.924149999999997
C      48.677605000000000     45.630150000000008     52.310150000000000
C      49.906765000000000     46.614049999999999     52.260550000000002
C      46.624355000000001     51.226050000000008     50.823149999999998
H      48.622244999999999     51.853950000000005     52.223050000000001
H      49.062225000000005     50.388750000000009     51.676749999999998
H      48.813885000000006     50.450849999999996     53.439650000000000
H      47.514915000000002     50.196649999999998     46.333650000000006
H      48.150375000000004     45.315850000000005     47.203050000000005
H      44.993135000000002     48.268450000000009     53.085949999999997
H      45.780025000000002     46.267350000000000     53.258550000000000
H      46.748735000000003     49.328750000000007     43.910550000000001
H      45.797874999999998     48.103050000000003     42.560350000000000
H      45.208154999999998     45.542549999999999     43.230649999999997
H      46.310825000000001     44.636850000000003     45.312750000000001
H      47.089455000000001     51.117150000000002     48.529550000000000
H      46.483505000000001     50.975349999999999     52.947650000000010
H      50.297665000000002     44.714250000000000     50.902550000000005
H      49.502114999999996     44.807250000000003     48.590950000000007
H      49.243315000000003     43.750949999999996     51.166849999999997
H      48.392334999999996     45.334550000000000     53.311250000000001
H      49.969065000000001     47.520750000000000     51.714950000000002
H      45.406925000000001     51.339549999999996     50.972650000000002
H      46.973914999999998     52.249050000000004     50.921650000000000
O      51.006864999999998     46.288249999999998     52.694749999999999
