26

C      50.329079999999990     44.975999999999999     48.251649999999984
C      49.537649999999999     45.939099999999996     47.873049999999992
C      46.327470000000005     51.147199999999998     46.278149999999997
C      50.195130000000006     47.324600000000004     47.745249999999999
C      46.699399999999997     50.384199999999993     47.628649999999993
C      49.493049999999997     48.421400000000006     47.840750000000000
C      46.992230000000006     48.842500000000001     47.458349999999996
C      48.041640000000001     47.991399999999999     47.943749999999994
C      45.814009999999996     47.966300000000004     47.295249999999996
C      47.742649999999998     47.456900000000005     49.233149999999995
C      45.493620000000007     47.218000000000004     48.408150000000006
C      46.417230000000004     47.294600000000003     49.422449999999998
H      51.512860000000003     45.116199999999992     48.126049999999992
H      50.116430000000008     43.862800000000007     48.339149999999989
H      49.818460000000002     49.574799999999996     47.938249999999996
H      48.388030000000001     45.854399999999998     47.746650000000002
H      45.803799999999995     50.638800000000003     48.251350000000002
H      45.065030000000007     50.899600000000007     45.620350000000002
H      51.302870000000013     47.311800000000005     47.676949999999991
H      47.269069999999999     51.083200000000005     48.189749999999989
H      46.717659999999995     52.137199999999993     46.349350000000001
H      46.851529999999997     50.306600000000003     45.593449999999990
H      44.934830000000005     48.070200000000000     46.534750000000003
H      48.633949999999999     47.773499999999999     50.074349999999995
H      44.487139999999997     46.834699999999998     48.530949999999990
H      46.122200000000007     47.004300000000001     50.406550000000010
