22

C      45.897649999999992     49.536949999999990     47.914399999999993
C      45.812150000000003     49.562049999999992     49.199399999999997
C      46.975650000000002     48.819449999999996     50.144099999999995
C      50.087550000000000     48.875250000000001     49.199799999999996
C      47.692949999999996     47.959550000000000     49.168099999999995
C      48.965750000000000     48.274049999999995     48.410100000000000
C      47.093249999999998     46.750949999999996     48.615600000000001
C      48.903449999999999     48.092149999999997     46.937799999999996
C      47.238649999999993     46.525549999999996     47.245199999999997
C      48.061849999999993     47.101649999999999     46.286799999999999
H      47.653250000000000     49.562549999999995     50.694800000000001
H      50.764949999999999     49.489049999999999     48.445399999999999
H      46.504149999999996     48.708049999999993     47.670999999999999
H      45.235050000000001     50.036049999999996     47.192999999999998
H      45.235849999999999     50.382550000000002     49.581400000000002
H      46.244549999999990     48.162149999999997     50.696100000000001
H      50.333449999999999     47.994549999999997     49.850899999999996
H      46.319350000000000     46.386949999999999     49.409100000000009
H      49.674749999999989     48.232049999999994     46.228499999999997
H      46.694950000000006     45.617449999999998     46.715600000000002
H      47.967750000000009     46.763349999999996     45.303899999999999
H      49.359949999999998     49.471449999999997     49.934500000000000
