50

C      48.053149999999988     51.059299999999993     44.827149999999996
C      46.946749999999994     44.383299999999998     46.302850000000007
C      48.537849999999992     50.620299999999993     46.079450000000008
C      47.310349999999985     50.269900000000000     43.847050000000003
C      47.853149999999999     44.976899999999993     47.257350000000002
C      45.772250000000000     45.104999999999997     45.453749999999999
C      48.703749999999999     48.696099999999994     47.862049999999996
C      46.092449999999999     48.469599999999993     43.433250000000001
C      48.451249999999987     47.340300000000006     48.108150000000009
C      45.693849999999998     47.200600000000001     43.999650000000003
C      48.206949999999992     49.283800000000006     46.549950000000003
C      47.021149999999992     48.968899999999998     44.358350000000002
C      47.839949999999988     46.405499999999996     47.144050000000007
C      46.192049999999995     46.503300000000003     45.131850000000000
C      47.421249999999986     48.480700000000006     45.758250000000004
C      47.266849999999991     47.045899999999996     45.901150000000001
C      48.280549999999991     52.453399999999995     44.563350000000000
C      49.139649999999989     53.254200000000004     45.459550000000007
C      49.323349999999991     52.853800000000000     46.877850000000009
C      49.235649999999993     51.437800000000003     47.118750000000006
C      49.401449999999997     50.943599999999996     48.397750000000002
C      49.272149999999996     49.518599999999999     48.833849999999998
C      47.744149999999991     43.337300000000006     45.724249999999998
C      48.638349999999988     42.666699999999999     46.625850000000000
C      49.277749999999997     43.251899999999999     47.722750000000005
C      48.833449999999999     44.547800000000002     48.259450000000001
C      49.220450000000000     45.301700000000004     49.365849999999995
C      48.910149999999987     46.653299999999994     49.428849999999997
C      49.502449999999996     48.942900000000002     50.178449999999998
C      49.460049999999995     47.537500000000001     50.361850000000004
C      50.425249999999991     50.442799999999998     52.367149999999995
C      50.022949999999994     46.821499999999993     51.646349999999998
C      49.863549999999989     49.648000000000003     51.254150000000003
H      46.986349999999987     50.626299999999993     42.916250000000005
H      45.691149999999993     49.077899999999993     42.565449999999998
H      44.885750000000002     46.838799999999999     43.402050000000003
H      48.157349999999994     53.163400000000003     43.472149999999999
H      49.281249999999986     54.368199999999995     45.285450000000012
H      49.576649999999987     53.699700000000000     47.507450000000006
H      49.903249999999986     51.704500000000003     49.019950000000009
H      47.857349999999997     42.763799999999996     44.787050000000008
H      48.791049999999998     41.631800000000005     45.937250000000006
H      49.971249999999998     42.436699999999995     48.157750000000007
H      49.779649999999990     44.932200000000002     50.192450000000008
H      50.142949999999999     50.494499999999995     53.434550000000002
H      49.666249999999991     47.242899999999999     52.620550000000001
H      49.716849999999994     45.866599999999998     51.594250000000002
H      51.086049999999986     47.258599999999994     51.727050000000006
H      51.114249999999998     51.374500000000005     51.997550000000004
O      45.370350000000002     44.295200000000001     44.663550000000001
