6

C      47.996549999999992     47.465199999999989     47.686549999999983
C      48.211749999999995     48.646200000000007     48.295449999999995
H      47.105050000000006     47.670100000000005     46.873550000000002
H      48.496549999999999     46.556399999999996     47.927050000000001
H      48.894949999999994     48.678399999999996     49.126449999999998
H      47.712549999999993     49.443600000000004     47.720049999999993
