18

C      49.541849999999997     49.762649999999994     47.111099999999993
C      46.500250000000001     49.300049999999999     47.035499999999999
C      48.896149999999999     48.597149999999999     47.987299999999998
C      47.485349999999997     48.431650000000005     47.770900000000005
C      49.492449999999998     47.937150000000003     49.149399999999993
C      46.960850000000001     47.263949999999994     48.206200000000003
C      48.770249999999997     46.771249999999995     49.511100000000006
C      47.420850000000002     46.383349999999993     49.237099999999998
H      49.947150000000001     50.527850000000001     47.873600000000003
H      48.950449999999996     50.268450000000001     46.271499999999996
H      46.745550000000001     49.305149999999998     45.923999999999999
H      45.437649999999998     49.297150000000002     47.229799999999997
H      50.562350000000002     48.031850000000006     49.463699999999996
H      45.901449999999997     47.080650000000006     48.091400000000000
H      49.499050000000004     46.066950000000006     50.076000000000001
H      46.765949999999997     45.472149999999999     49.764399999999988
H      50.447650000000003     49.488150000000005     46.759599999999999
H      47.130749999999999     50.344449999999995     47.437499999999993
