6

C      47.973249999999993     47.457749999999990     48.378449999999987
C      48.280750000000005     48.609949999999991     48.010250000000006
H      48.764649999999996     46.654549999999993     48.612749999999998
H      46.989650000000005     46.966549999999998     48.204050000000002
H      47.587849999999996     49.079749999999997     47.387250000000002
H      49.010349999999995     49.345450000000007     48.148149999999994
