73

C      50.904304999999994     47.621849999999995     48.036049999999989
C      50.439004999999995     48.300249999999998     49.158949999999997
C      48.704304999999991     51.067349999999998     45.589049999999993
C      47.731804999999994     51.221449999999997     46.609949999999991
C      50.634304999999998     48.018250000000002     46.616749999999996
C      49.309804999999997     49.217550000000003     49.063150000000000
C      49.817304999999990     50.073749999999997     45.637149999999998
C      47.790204999999986     50.661450000000009     47.795749999999991
C      49.623204999999999     49.103150000000007     46.646049999999995
C      48.808304999999990     49.655949999999997     47.786049999999996
C      51.352904999999993     46.252150000000007     48.309849999999990
C      51.442004999999995     45.591050000000003     49.626049999999999
C      51.351804999999999     46.522050000000000     50.698349999999998
C      50.724904999999993     47.720150000000004     50.553349999999988
C      48.749504999999999     52.303950000000007     44.704249999999995
C      47.751204999999999     53.207150000000006     44.281249999999993
C      46.636604999999989     53.041450000000005     45.083849999999991
C      46.628004999999987     52.307750000000006     46.333849999999991
C      51.868204999999989     45.672150000000002     47.116849999999992
C      52.666504999999987     44.473950000000002     47.078049999999998
C      52.206204999999997     43.090850000000003     47.371749999999999
C      52.331304999999986     42.178050000000006     46.276649999999997
C      50.602204999999998     47.072850000000003     45.536049999999996
C      51.121404999999996     45.632050000000000     45.695849999999993
C      48.617804999999990     49.678850000000004     50.420249999999989
C      51.483604999999997     49.691450000000003     51.737850000000002
C      50.712705000000000     48.565050000000006     51.810249999999989
C      49.734105000000000     47.168350000000004     44.333049999999993
C      47.534104999999997     49.225450000000002     51.111649999999990
C      54.160065000000003     44.768149999999999     46.869449999999993
C      45.768404999999987     52.538550000000001     47.361349999999995
C      45.403004999999993     53.946850000000005     44.711250000000000
C      42.769904999999994     52.644449999999999     50.453849999999996
C      44.969104999999999     52.602950000000000     48.433149999999991
C      43.082204999999988     51.337650000000004     49.528149999999989
C      44.014604999999989     51.463249999999995     48.547149999999995
C      42.265004999999988     50.109150000000007     49.705449999999992
C      44.041104999999988     50.391050000000000     47.615949999999991
C      42.216304999999991     49.113650000000000     48.623950000000001
C      43.200704999999999     49.369450000000008     47.504349999999995
H      51.528904999999995     44.470450000000007     49.766249999999992
H      50.676204999999996     50.082749999999997     45.029449999999990
H      47.112304999999992     50.862249999999996     48.659749999999995
H      51.621504999999999     50.320550000000004     52.573749999999997
H      49.517505000000000     52.087050000000012     44.090349999999994
H      47.997304999999997     54.019449999999999     43.409450000000000
H      52.017304999999993     42.763650000000005     48.459049999999998
H      52.135504999999995     42.333450000000006     45.268649999999994
H      52.128904999999989     45.521650000000001     45.253349999999990
H      54.632325000000009     45.138150000000003     45.711149999999996
H      50.261204999999990     44.950850000000003     45.441149999999993
H      48.778704999999988     50.676549999999999     50.844850000000001
H      51.882904999999994     50.009950000000003     50.815849999999990
H      51.627904999999998     46.337450000000004     51.773649999999996
H      48.919204999999991     47.901050000000005     44.345949999999995
H      49.336704999999995     46.228650000000002     43.896549999999998
H      50.030904999999990     48.282249999999998     52.590550000000000
H      47.175304999999994     48.192750000000004     50.840449999999997
H      47.332104999999999     49.796050000000001     52.139849999999988
H      54.787995000000009     43.788450000000005     47.109049999999996
H      54.363905000000003     45.554750000000006     47.553549999999994
H      45.256104999999991     53.314450000000001     49.161749999999991
H      44.365504999999999     53.287849999999999     44.655649999999994
H      45.050304999999994     54.942950000000003     45.283649999999994
H      45.822504999999992     54.958750000000002     44.265449999999994
H      52.407404999999997     41.041249999999998     46.312349999999995
H      42.893004999999988     52.172149999999995     51.435549999999999
H      41.622304999999997     52.551950000000012     50.525149999999989
H      43.076104999999998     53.671450000000000     50.297949999999993
H      41.715004999999991     50.106950000000005     50.549050000000001
H      44.884304999999998     50.424050000000001     46.855249999999991
H      41.212004999999991     48.926250000000003     48.106149999999992
H      43.384504999999990     48.682050000000004     46.674449999999993
