38

C      46.612774999999985     52.256849999999986     48.014799999999994
C      47.357274999999994     49.349449999999997     49.436899999999994
C      48.013474999999993     51.475649999999995     48.116399999999999
C      48.308074999999995     50.441549999999999     49.066699999999997
C      48.875774999999997     51.727550000000001     47.066400000000002
C      49.736474999999992     50.213450000000002     49.232599999999991
C      50.312457999999999     51.459649999999989     47.149199999999993
C      50.597209999999997     50.545250000000003     48.170199999999994
C      47.214574999999989     43.741449999999993     49.467699999999994
C      45.397675000000000     43.903149999999989     47.581400000000002
C      45.826474999999995     44.291249999999998     49.086099999999988
C      45.476774999999996     44.947349999999993     46.380600000000001
C      46.519374999999989     45.639350000000000     48.509000000000000
C      46.411674999999995     45.872549999999997     47.144199999999998
C      46.591074999999996     46.582649999999994     49.246899999999997
C      47.076374999999992     46.925649999999997     46.556600000000003
C      47.732974999999989     47.927450000000000     48.785499999999999
C      47.744074999999988     48.010249999999992     47.335700000000003
H      45.705674999999992     51.647849999999998     47.954599999999999
H      46.805675000000001     53.194150000000000     47.321299999999994
H      46.419074999999999     49.802950000000003     49.324399999999997
H      48.663774999999994     52.332450000000001     46.306799999999996
H      50.064112000000002     49.669350000000001     50.048199999999994
H      51.010055000000001     51.964349999999989     46.497799999999998
H      51.683025000000008     50.517549999999993     48.065500000000000
H      47.277574999999992     42.983349999999994     50.355999999999995
H      48.254174999999996     44.047949999999993     49.153400000000005
H      44.316974999999992     43.244149999999998     47.477099999999993
H      46.118474999999997     42.805850000000000     47.348900000000000
H      45.005575000000000     44.532549999999993     49.648300000000006
H      44.489274999999999     45.428849999999990     46.540499999999994
H      46.106474999999996     46.567450000000001     50.206400000000002
H      46.799574999999997     47.138349999999996     45.474099999999993
H      48.669174999999989     47.802249999999994     49.267700000000005
H      48.214374999999997     48.977249999999991     46.951300000000003
H      46.230374999999988     52.521049999999995     49.158199999999994
H      45.901274999999991     44.681350000000002     45.363399999999999
H      47.538274999999992     49.220549999999996     50.636600000000001
