22

C      46.531149999999997     49.700959999999995     49.080299999999987
C      45.736550000000001     49.304060000000007     47.954200000000000
C      47.719249999999995     46.401570000000007     48.382899999999992
C      46.251650000000005     48.540260000000004     46.737299999999991
C      48.601350000000004     47.209220000000002     47.412499999999994
C      47.844150000000006     48.330659999999995     46.774099999999990
C      49.870449999999998     47.283180000000002     48.173999999999992
C      48.753950000000010     49.454160000000002     46.957499999999996
C      50.391550000000002     48.582160000000002     48.316499999999991
C      49.735450000000007     49.720860000000002     47.853799999999993
H      48.264850000000003     46.543450000000007     49.321500000000000
H      47.724650000000004     49.557060000000007     49.131599999999992
H      45.885449999999999     50.056659999999994     49.934899999999999
H      44.627749999999999     49.371459999999999     47.898099999999999
H      47.877350000000000     45.320040000000006     48.033199999999994
H      46.587150000000001     46.712760000000003     48.292099999999991
H      45.973150000000004     47.422929999999994     46.503299999999996
H      46.211050000000007     49.458759999999998     46.065100000000001
H      50.408750000000005     46.411479999999997     48.669399999999996
H      48.335649999999994     50.295259999999999     46.524400000000000
H      51.372250000000001     48.739459999999994     48.843599999999995
H      50.124950000000005     50.679959999999994     48.081199999999995
