5

C      48.030899999999981     47.898799999999994     47.859599999999986
H      48.893799999999999     47.246600000000001     47.639399999999995
H      47.106200000000001     47.513400000000004     48.128500000000003
H      48.094499999999996     48.753399999999999     47.110299999999995
H      48.286099999999990     48.625200000000000     48.889700000000005
