20

C      47.235729999999997     45.837750000000000     46.412849999999992
C      49.182189999999991     48.287850000000006     45.378250000000001
C      48.116790000000002     46.022549999999995     47.491650000000000
C      48.696370000000002     48.914649999999995     46.441250000000004
C      47.511530000000008     47.298950000000005     48.073150000000005
C      47.801870000000001     48.608549999999994     47.689349999999997
C      47.030220000000000     46.942549999999997     49.350749999999998
C      47.519770000000008     49.663950000000000     48.798349999999999
C      46.744199999999999     47.923950000000005     50.445249999999994
C      47.142749999999999     49.296650000000000     50.110250000000001
H      46.304790000000004     46.334450000000004     46.535049999999991
H      47.073819999999998     45.384349999999998     45.360650000000000
H      49.717500000000001     49.179449999999989     44.574750000000002
H      49.805250000000001     47.839150000000004     44.761550000000000
H      49.159990000000008     45.780749999999998     47.365749999999998
H      48.867120000000000     49.966949999999997     46.564150000000005
H      47.235150000000004     46.014250000000004     49.767949999999999
H      47.841390000000004     50.615650000000002     48.834150000000001
H      46.194749999999999     47.524149999999992     51.425249999999998
H      46.974690000000002     50.020749999999992     50.823650000000001
