55

C      48.456099999999992     50.702749999999995     50.481399999999994
C      47.989699999999999     49.386949999999999     50.558099999999996
C      49.116700000000002     47.111850000000004     44.859600000000000
C      49.296500000000002     51.221350000000001     49.265600000000006
C      48.263100000000001     48.318249999999992     49.404899999999998
C      48.637999999999998     47.210750000000004     46.221400000000003
C      50.422300000000000     50.749549999999999     47.168099999999995
C      50.424900000000001     50.203249999999997     45.899199999999993
C      49.486200000000004     50.263049999999993     48.090500000000006
C      49.752099999999992     48.989750000000001     45.677700000000002
C      48.808900000000001     49.063249999999996     48.135000000000005
C      49.091000000000001     48.526349999999994     46.843099999999993
C      47.771700000000003     51.794649999999990     51.174899999999994
C      47.075799999999994     50.967449999999985     52.142899999999997
C      47.482999999999997     48.876249999999999     51.710999999999999
C      49.068700000000000     47.111850000000004     49.903800000000004
C      47.408799999999999     46.638049999999993     46.705600000000004
C      51.672999999999995     50.534049999999993     44.961100000000002
C      51.651599999999995     51.785549999999986     44.314499999999995
C      52.705999999999996     52.676649999999995     44.438900000000004
C      49.742399999999996     52.490049999999997     49.361699999999999
C      44.028900000000000     43.441749999999999     49.232900000000001
C      43.685499999999998     44.801649999999995     49.286900000000003
C      45.598599999999998     45.865949999999998     47.940100000000001
C      44.843899999999998     45.795349999999999     49.090999999999994
C      46.746199999999995     46.651849999999996     47.897199999999998
C      45.244999999999997     46.615849999999995     50.266700000000000
C      46.884899999999995     47.863450000000000     48.637199999999993
C      45.912100000000002     47.695949999999996     49.796700000000001
H      48.810699999999990     46.475049999999996     44.074100000000001
H      48.049799999999998     52.819549999999992     51.298499999999990
H      46.360099999999996     51.747249999999994     52.715999999999994
H      49.937900000000006     46.940849999999998     49.056899999999999
H      48.222299999999997     46.368849999999995     50.137900000000002
H      47.430500000000002     45.958349999999996     45.795900000000003
H      49.134899999999995     47.187550000000002     50.947699999999998
H      50.981900000000003     51.739649999999997     43.349699999999999
H      53.230899999999998     52.979150000000004     45.342900000000000
H      46.793699999999994     47.381450000000001     52.669299999999993
H      52.017400000000002     51.669049999999999     46.679299999999998
H      53.088500000000003     52.962350000000001     43.284000000000006
H      50.220499999999994     53.215249999999997     48.590299999999999
H      49.749499999999991     53.201549999999997     50.237799999999993
H      43.322699999999998     42.784750000000003     49.782100000000000
H      42.769100000000002     44.708249999999992     48.881399999999999
H      45.126399999999997     43.087050000000005     49.205600000000004
H      45.266100000000002     45.120149999999995     47.140900000000002
H      44.625099999999996     46.638649999999998     51.240899999999996
H      46.671599999999998     48.802849999999992     48.069800000000001
H      45.601599999999998     48.425349999999995     50.718400000000003
N      49.863300000000002     48.135549999999995     44.590900000000005
N      47.065400000000004     49.673450000000003     52.562600000000003
O      52.463699999999996     49.700850000000003     45.208399999999997
O      47.405600000000000     47.502749999999992     51.877799999999993
O      51.595900000000007     51.412449999999993     47.507300000000001
