6

C      48.424949999999988     48.362299999999991     48.371949999999991
C      47.357149999999990     47.638600000000004     47.807449999999996
H      48.114249999999998     49.347299999999997     48.705550000000002
H      49.511150000000001     48.170600000000000     48.525850000000005
H      46.488849999999999     48.297400000000003     47.294449999999998
H      47.366349999999997     46.652700000000003     48.498649999999998
