6

C      48.687249999999985     47.682699999999997     47.866549999999997
C      47.470550000000003     47.923499999999997     48.192750000000004
H      49.386749999999992     46.789899999999996     48.081149999999994
H      49.393850000000000     48.379799999999996     47.320049999999995
H      47.529049999999998     49.210100000000004     47.864350000000002
H      46.606150000000000     47.587200000000003     48.679950000000005
