51

C      45.091799999999992     49.572749999999992     50.118249999999996
C      53.076000000000001     46.729749999999996     43.985250000000001
C      46.463500000000003     49.974949999999993     50.050950000000007
C      53.011199999999995     47.520550000000000     45.092350000000003
C      44.543599999999998     48.606949999999998     49.203750000000007
C      51.946099999999994     45.928950000000000     43.787350000000004
C      47.251199999999997     49.474950000000000     48.893250000000002
C      51.984400000000001     47.484749999999998     46.190750000000001
C      44.564599999999999     47.060150000000000     47.642950000000006
C      45.200799999999994     46.412250000000000     46.634150000000005
C      49.506800000000005     45.481549999999999     44.270850000000003
C      47.172699999999999     45.931650000000005     45.385250000000006
C      49.058199999999999     47.884450000000001     47.169650000000004
C      45.373500000000000     48.064549999999997     48.300050000000006
C      50.910000000000004     46.132149999999996     44.555650000000007
C      46.711099999999995     46.583349999999996     46.615250000000003
C      48.695799999999998     46.064250000000001     45.247950000000003
C      46.712499999999999     48.311050000000002     48.147350000000003
C      50.783999999999999     47.067149999999998     45.734550000000006
C      47.556300000000000     47.488450000000000     47.445650000000001
C      49.400599999999990     47.007750000000001     46.195150000000005
C      48.679399999999994     49.668149999999997     49.033250000000002
C      49.550899999999992     48.834150000000001     47.987250000000003
C      44.524300000000004     50.371449999999996     51.137350000000005
C      44.963400000000000     51.202950000000001     52.213450000000002
C      46.391699999999993     51.382350000000002     52.216849999999994
C      47.030800000000006     50.929149999999993     50.991649999999993
C      48.493099999999998     50.992550000000001     51.254849999999990
C      48.868699999999997     51.116150000000005     49.514950000000006
C      42.950699999999998     50.484449999999995     51.440550000000009
C      48.708499999999994     44.315150000000003     43.755450000000003
H      53.902300000000004     47.000150000000005     43.135950000000001
H      53.958400000000005     47.903949999999995     45.552550000000004
H      43.435800000000000     48.553150000000002     49.470650000000006
H      52.234599999999993     45.274349999999998     42.912750000000003
H      52.273800000000001     48.019649999999999     47.258950000000006
H      43.461700000000000     47.055149999999998     47.833050000000007
H      44.989399999999996     45.451650000000001     46.002550000000006
H      46.488300000000002     45.514650000000003     44.548650000000002
H      50.460500000000003     49.357749999999996     48.169650000000004
H      44.792299999999997     51.966049999999996     53.188049999999997
H      46.639999999999993     52.296250000000001     52.806750000000001
H      49.043299999999995     50.182249999999996     51.750150000000005
H      48.896499999999996     51.743449999999996     51.669950000000000
H      48.438699999999990     52.458950000000002     49.194350000000007
H      49.888600000000004     51.256749999999997     49.477350000000001
H      42.708599999999997     50.687650000000005     52.512750000000004
H      49.639899999999997     43.541049999999998     43.720450000000007
H      48.278399999999998     44.595150000000004     42.811950000000003
H      48.019399999999997     43.669550000000001     44.495950000000001
O      42.041599999999995     49.944450000000003     50.836950000000009
