29

C      48.043039999999984     47.611699999999985     48.786049999999989
C      46.273739999999989     47.988100000000003     50.656649999999992
C      46.956940000000003     48.335300000000004     49.429349999999992
C      45.452039999999997     48.846900000000005     51.420250000000003
C      46.823139999999995     49.732900000000001     49.178850000000004
C      45.244239999999991     50.151899999999998     50.886850000000003
C      45.949839999999995     50.651899999999998     49.759949999999996
C      48.502839999999992     48.006399999999999     47.471349999999994
C      46.510739999999998     46.579099999999997     46.156349999999996
C      49.023240000000001     47.142200000000003     46.395549999999993
C      48.014939999999996     46.460300000000004     45.727849999999997
C      50.410360000000011     46.821600000000004     46.060849999999995
C      48.270739999999989     45.324600000000004     44.918249999999993
C      50.702880000000000     45.731099999999998     45.133749999999999
C      49.596046000000001     44.941900000000004     44.668950000000002
H      45.996539999999996     46.632999999999996     45.042149999999999
H      46.494639999999990     47.098399999999998     51.197449999999996
H      48.231439999999992     46.511099999999999     48.980950000000000
H      44.764640000000000     48.471800000000002     52.057449999999996
H      47.298940000000002     49.922899999999998     48.222249999999995
H      44.335939999999994     50.662199999999999     51.431649999999998
H      45.600139999999996     51.724400000000003     49.520850000000003
H      48.320939999999993     48.867899999999992     46.904850000000003
H      46.191639999999992     47.266300000000001     46.990749999999998
H      46.352840000000000     45.459599999999995     46.121950000000005
H      51.212890000000002     47.564700000000002     46.529949999999992
H      47.637940000000000     44.674799999999991     44.520649999999996
H      51.664060000000006     45.638899999999992     44.545250000000003
H      49.906649999999999     44.275599999999997     43.942550000000004
