49

C      47.980699999999999     48.072350000000000     48.419649999999990
C      47.494700000000002     48.641250000000007     47.080449999999999
C      44.409900000000000     50.323450000000015     50.296850000000006
C      47.226899999999993     48.163150000000009     49.632750000000001
C      46.336899999999993     49.312250000000006     47.141750000000002
C      45.379100000000001     49.391650000000006     50.920249999999996
C      44.740100000000005     50.517850000000003     48.921149999999997
C      46.177399999999999     49.135350000000010     49.722350000000006
C      45.790299999999995     49.613150000000012     48.416650000000004
C      49.087100000000000     47.161850000000008     48.337050000000005
C      49.742200000000004     46.817450000000008     47.033150000000006
C      49.172999999999995     47.293850000000006     45.746049999999997
C      48.128200000000000     48.320650000000008     45.851349999999996
C      49.848199999999999     46.948150000000005     49.643650000000008
C      50.866099999999996     46.025650000000006     49.516150000000010
C      51.502000000000002     45.588550000000005     48.342550000000003
C      50.930799999999998     46.049450000000007     47.130650000000003
C      49.339499999999994     47.211350000000003     50.908250000000010
C      48.108700000000006     47.837750000000007     50.862150000000014
C      49.742799999999995     46.768550000000005     44.603850000000008
C      49.202099999999994     47.058950000000003     43.361850000000004
C      47.991599999999998     47.830450000000006     43.514350000000007
C      47.365100000000005     48.517750000000014     44.573250000000002
C      51.219400000000000     46.270850000000003     44.761750000000006
C      45.815599999999996     50.094650000000009     45.966149999999999
C      46.524300000000004     49.705550000000009     44.401150000000001
C      47.198600000000006     48.370150000000017     51.991950000000003
C      45.962700000000005     49.127950000000006     52.222350000000006
C      46.836000000000006     47.670850000000009     42.498249999999999
C      44.919900000000005     49.294750000000015     53.315550000000002
H      44.343399999999995     51.193149999999996     48.277150000000006
H      51.310399999999994     45.853650000000009     50.563649999999996
H      52.235700000000001     44.806850000000004     48.583950000000002
H      49.901299999999999     46.907150000000009     51.876149999999996
H      44.750700000000002     49.980750000000008     45.896850000000001
H      46.170399999999994     51.030450000000009     46.038449999999997
H      45.839300000000001     49.529650000000011     43.658349999999999
H      47.004500000000000     50.767450000000004     44.003850000000000
H      47.483600000000003     47.575650000000003     52.715550000000007
H      46.425999999999995     46.654150000000008     42.332250000000002
H      48.725000000000001     45.825650000000003     41.575850000000003
H      45.539499999999997     49.835749999999997     54.246250000000003
H      43.957799999999999     49.733850000000011     52.830550000000002
H      44.490699999999997     49.064550000000004     54.424149999999997
H      43.764299999999999     50.957250000000009     50.920550000000006
N      51.514199999999995     45.967150000000004     45.994349999999997
O      46.272200000000005     48.582650000000008     41.964650000000006
O      51.856199999999994     46.574450000000006     43.773049999999998
O      49.155899999999995     46.326150000000005     42.257649999999998
