5

C      47.875699999999995     48.186749999999989     47.934549999999987
H      47.848900000000000     48.610450000000007     48.838450000000009
H      47.228700000000003     47.236550000000001     48.074849999999998
H      48.771299999999997     47.993550000000006     47.161549999999991
H      47.244500000000002     48.763449999999999     47.346750000000000
