22

C      48.228199999999994     48.036049999999996     50.646799999999992
C      49.449600000000004     48.820350000000005     50.022399999999998
C      47.460700000000003     47.242350000000002     49.479599999999998
C      49.843999999999994     48.275550000000010     48.601199999999999
C      47.564499999999995     47.672650000000004     48.047800000000002
C      48.697400000000002     48.203249999999997     47.449399999999997
C      46.513199999999998     47.129950000000008     47.062700000000000
C      48.794699999999992     48.371450000000010     46.053699999999999
C      46.856799999999993     47.043550000000010     45.683999999999997
C      48.263599999999997     47.334750000000000     45.272100000000002
H      48.661299999999997     47.345550000000003     51.554200000000002
H      47.516800000000003     48.780950000000004     51.059500000000000
H      50.465800000000002     49.026150000000001     50.363500000000002
H      48.900300000000001     49.724649999999997     49.975200000000001
H      46.153700000000001     46.843150000000009     49.609200000000001
H      48.035899999999998     46.275350000000003     49.531300000000002
H      50.009399999999999     47.104650000000007     48.411899999999996
H      50.542699999999996     49.071550000000002     48.290700000000001
H      45.457300000000004     46.943550000000002     47.105100000000000
H      49.651899999999998     48.990549999999999     45.671199999999999
H      46.587400000000002     46.860349999999997     44.555300000000003
H      48.730000000000004     46.911749999999998     44.445799999999998
