7

C      47.603399999999993     47.771599999999992     49.182149999999993
C      48.277700000000003     48.402200000000001     48.179550000000006
C      48.156200000000005     48.281299999999995     47.013350000000003
H      49.101999999999997     49.268099999999997     48.520650000000003
H      46.855200000000004     48.387200000000000     49.710549999999998
H      47.088400000000000     46.731900000000003     48.895350000000008
H      49.144799999999996     48.233600000000003     46.289450000000002
