62

C      48.019029999999987     50.982634999999988     46.355549999999987
C      49.131919999999994     50.043084999999998     46.170549999999992
C      47.423289999999994     48.661606699999993     50.440149999999988
C      48.497240000000005     47.790155000000020     50.042949999999990
C      46.981619999999992     50.712224999999997     47.317749999999990
C      49.355840000000001     48.805565999999992     46.713349999999991
C      47.052789999999987     49.629734999999997     49.553249999999991
C      49.069990000000004     47.813554999999987     48.725549999999998
C      47.314169999999990     49.604804999999992     48.135149999999996
C      48.517030000000005     48.716384999999995     47.853949999999998
C      47.651100000000000     51.962904999999985     45.419749999999993
C      48.086439999999996     52.073934999999999     44.016149999999996
C      49.333399999999997     51.424264999999984     43.880150000000000
C      49.795640000000006     50.519824999999997     44.885549999999995
C      46.845819999999989     48.419255000000014     51.854649999999992
C      47.533760000000001     47.682955000000000     52.745949999999993
C      48.689109999999999     47.008455000000012     52.469049999999996
C      49.340199999999996     47.191954999999986     51.151949999999999
C      45.936779999999999     51.890364999999996     47.230350000000001
C      50.474459999999993     48.158654999999996     45.858249999999998
C      46.904339999999991     53.001775000000002     46.290949999999995
C      44.840556999999990     51.207004999999995     46.362949999999998
C      47.472709999999992     52.964144999999995     43.066649999999996
C      50.586990000000000     46.275054999999988     50.654150000000001
C      47.259029999999996     45.896454999999996     46.122749999999996
C      49.794799999999995     46.907955000000001     44.931749999999994
C      48.579070000000002     45.135755000000003     46.273249999999990
C      49.794809999999998     45.482555000000005     45.640450000000001
C      48.584980000000002     43.765055000000011     46.862449999999995
C      50.977879999999999     44.689054999999989     45.510249999999999
C      49.727729999999994     43.121854999999996     47.238549999999989
C      50.923919999999995     43.774555000000007     46.690149999999988
H      47.761169999999993     46.792555000000007     46.671549999999996
H      44.119480000000010     52.083954999999996     46.156849999999991
H      49.970070000000007     47.459354999999995     48.307249999999996
H      50.013030000000001     51.716724999999990     42.969250000000002
H      46.117279999999994     49.135507999999994     52.243949999999998
H      47.223149999999990     47.512654999999974     53.838149999999999
H      49.193299999999994     46.710155000000000     53.258849999999995
H      45.517060000000001     52.063154999999988     48.250949999999989
H      50.465679999999992     49.528431999999995     44.366149999999990
H      51.657200000000003     48.173755000000007     45.420549999999992
H      47.583429999999993     53.641484999999996     46.975449999999995
H      46.422029999999992     53.731694999999995     45.507449999999992
H      44.213980000000006     50.652764999999995     47.103749999999991
H      45.278309999999991     51.087674999999997     45.330149999999989
H      46.593189999999993     52.322264999999994     42.585849999999994
H      48.185649999999995     53.167965000000002     42.161850000000001
H      47.158969999999997     53.901944999999991     43.453049999999990
H      49.865739999999988     45.400955000000003     50.481150000000000
H      51.397999999999996     46.903355000000019     50.213250000000002
H      51.179969999999997     47.525754999999982     46.693149999999989
H      51.295959999999994     46.066054999999999     51.431649999999991
H      46.554519999999997     45.993055000000005     44.945049999999995
H      50.621690000000001     46.843855000000005     44.291950000000000
H      46.301769999999991     45.778254999999994     46.736449999999991
H      48.846480000000000     47.268455000000010     44.234049999999996
H      47.768670000000000     42.984954999999992     47.197850000000003
H      51.880519999999990     45.140255000000003     44.935850000000002
H      50.095979999999997     42.098055000000009     47.396649999999994
H      51.785330000000002     43.230355000000017     46.880049999999997
H      46.413950000000000     50.505314999999996     49.912949999999995
