5

C      47.770299999999992     47.853849999999994     48.273499999999991
H      47.534400000000005     48.951749999999997     48.620899999999992
H      47.185699999999997     47.048250000000003     48.848100000000002
H      47.785500000000013     47.280749999999998     47.151899999999998
H      48.814300000000003     47.706550000000000     48.470199999999991
