20

C      49.239049999999992     47.772049999999993     50.740449999999996
C      45.509650000000001     47.926349999999999     46.673850000000009
C      48.683450000000001     48.432349999999985     49.581150000000001
C      46.575049999999997     48.361350000000002     47.458350000000003
C      48.951850000000000     48.317449999999994     48.158850000000008
C      47.969850000000001     48.413149999999987     47.085950000000004
C      49.936450000000001     47.339050000000000     47.873449999999998
C      48.528050000000000     48.383549999999985     45.702950000000001
C      50.375149999999998     47.089249999999993     46.585850000000001
C      49.571049999999993     47.434349999999995     45.391250000000007
H      48.599250000000005     48.177049999999994     51.596950000000000
H      50.184350000000002     47.140649999999994     50.537450000000000
H      44.610549999999996     48.307450000000003     47.162050000000001
H      47.713050000000003     48.731150000000000     50.305050000000001
H      46.602449999999997     48.948449999999994     48.357850000000006
H      45.655449999999995     47.557850000000002     45.550650000000005
H      50.650150000000004     47.126050000000006     48.629650000000005
H      47.989449999999998     49.061949999999996     44.756250000000001
H      51.389450000000004     46.938050000000004     46.435750000000006
H      49.882150000000003     47.490449999999996     44.403050000000000
