18

C      48.234399999999987     49.776299999999992     46.586599999999990
C      50.042800000000000     47.507300000000001     46.426600000000001
C      47.746899999999997     48.412800000000004     47.365400000000001
C      48.718899999999991     47.270700000000005     47.327999999999996
C      46.587899999999991     48.171499999999995     48.157100000000007
C      48.697499999999991     46.386399999999995     48.499699999999997
C      46.415099999999995     47.102900000000005     49.064399999999999
C      47.557199999999995     46.380799999999994     49.341200000000008
H      50.439700000000002     48.311099999999996     47.063099999999999
H      48.746899999999997     49.547700000000006     45.702000000000005
H      50.007300000000001     47.967699999999994     45.596399999999996
H      47.199599999999990     49.975399999999993     46.001700000000007
H      48.810599999999994     50.499600000000001     47.325099999999999
H      50.527900000000002     46.531499999999994     46.433200000000006
H      45.741699999999994     48.692599999999999     47.506099999999996
H      49.463600000000000     45.500399999999999     48.529400000000003
H      45.472099999999998     47.110299999999995     49.601300000000002
H      47.393199999999993     46.093000000000004     50.403600000000004
