16

C      48.463949999999990     50.163899999999991     49.450899999999990
C      48.554850000000002     49.525399999999998     46.450099999999999
C      48.229950000000002     48.903699999999994     48.893099999999997
C      48.689549999999997     48.524299999999997     47.414999999999999
C      47.392949999999999     48.105599999999995     49.629200000000004
C      48.550150000000002     47.079599999999999     47.166599999999995
C      47.252150000000000     46.713599999999992     49.272200000000005
C      47.976950000000002     46.255699999999997     48.092499999999994
H      49.092050000000000     50.744100000000003     48.597900000000003
H      48.045649999999995     50.448299999999996     50.514500000000005
H      48.674049999999994     50.636300000000006     46.708499999999994
H      48.122050000000002     49.195699999999995     45.454000000000001
H      46.888450000000006     48.392199999999995     50.545999999999999
H      49.111549999999994     46.330799999999996     46.430500000000002
H      47.307850000000002     46.253199999999993     50.250999999999998
H      47.799650000000000     45.255899999999997     47.933299999999996
