62

C      43.016586999999987     47.335110000000000     46.880899999999997
C      49.078756999999996     44.499110000000002     47.251999999999995
C      50.396896999999996     45.019810000000000     47.530400000000000
C      49.030327000000000     53.395509999999994     49.231600000000000
C      47.791757000000004     45.133310000000002     47.241399999999999
C      47.746267000000003     52.981010000000005     48.925300000000007
C      50.129716999999999     52.566210000000005     49.255699999999990
C      50.399327000000000     46.359410000000004     48.008099999999999
C      45.973096999999996     51.127810000000004     48.688500000000005
C      45.910137000000006     49.955710000000003     47.863699999999994
C      50.905347000000006     50.248710000000010     49.218999999999994
C      50.674277000000004     48.960810000000002     48.673500000000004
C      46.688787000000005     47.397510000000004     47.777400000000000
C      47.376807000000014     51.637010000000011     48.640599999999992
C      49.851717000000008     51.122310000000006     48.950500000000005
C      47.868397000000002     46.583410000000001     47.538399999999996
C      46.929107000000002     48.805110000000006     47.949100000000001
C      49.120137000000000     47.034210000000002     48.106399999999994
C      49.360647000000000     48.442410000000002     48.353499999999997
C      48.496667000000002     50.788509999999995     48.506699999999995
C      48.233297000000007     49.348310000000005     48.276899999999998
C      51.762737000000001     46.955610000000000     47.789600000000007
C      51.812336999999999     48.279810000000005     48.237899999999996
C      49.104067000000001     43.005310000000001     47.253499999999988
C      50.250946999999996     42.246010000000005     47.267300000000006
C      51.586337000000000     42.775110000000005     47.118899999999996
C      51.620436999999995     44.133410000000005     47.379099999999994
C      52.813237000000001     44.908210000000004     47.255399999999995
C      52.922736999999998     46.200710000000001     47.290400000000005
C      46.627506999999994     44.339810000000007     46.849599999999995
C      46.523707000000002     43.044609999999999     46.519999999999996
C      47.804006999999999     42.460709999999999     46.753000000000000
C      44.489587000000000     49.469609999999996     47.657899999999998
C      45.262777000000000     42.449910000000003     45.874300000000005
C      45.208887000000004     47.049110000000006     47.995099999999994
C      51.539837000000006     52.726610000000001     49.699799999999996
C      52.404537000000005     53.871710000000000     50.021699999999996
H      44.976127000000005     46.027110000000000     47.884299999999996
H      42.053462999999994     47.773910000000008     46.656199999999998
H      46.980216999999996     53.758209999999998     49.264399999999995
H      45.191186999999999     51.614710000000002     49.387899999999988
H      52.029937000000004     50.453810000000004     49.547799999999995
H      52.786136999999997     48.469510000000007     48.209299999999999
H      50.360676999999995     41.177590000000002     47.302399999999992
H      52.453837000000007     42.263510000000004     46.799099999999996
H      53.660837000000001     44.330110000000005     46.827200000000005
H      53.946537000000006     46.565010000000001     47.075500000000005
H      45.715057000000002     44.712310000000002     46.761399999999995
H      48.289567000000005     41.296759999999999     46.665700000000001
H      43.910227000000006     49.741710000000005     48.564200000000000
H      49.682597000000001     54.822409999999998     50.152299999999997
H      44.439206999999996     43.005710000000001     45.450400000000002
H      45.377457000000007     41.373370000000001     45.582800000000006
H      44.590827000000004     42.322810000000004     46.702900000000000
H      44.998566999999994     47.494210000000002     48.992999999999995
H      53.304136999999997     53.914310000000008     49.686700000000002
H      52.036536999999996     54.750910000000005     50.549599999999998
H      52.285236999999995     51.935710000000007     49.847200000000001
H      43.744217000000006     49.962009999999999     47.205399999999997
O      42.875427000000002     46.104810000000001     46.807699999999997
O      44.311897000000002     48.016610000000007     47.015999999999991
O      48.947507000000002     54.766710000000010     49.625699999999995
