9

C      47.681949999999986     47.465599999999995     47.170299999999997
C      47.473149999999997     48.631799999999991     48.187099999999994
C      48.661349999999992     48.729199999999999     49.027200000000001
H      46.889450000000004     49.428600000000003     47.879299999999994
H      47.907850000000003     46.398500000000006     47.777999999999999
H      49.110549999999996     47.782900000000005     49.422999999999995
H      48.707850000000001     49.601499999999994     49.699800000000003
H      46.902149999999999     47.324599999999997     46.300199999999997
H      48.592549999999996     47.338400000000000     47.133999999999993
