37

C      49.249150000000000     47.087849999999989     52.048299999999998
C      47.398249999999997     47.129950000000008     49.756600000000006
C      49.729250000000000     46.379350000000002     49.772500000000008
C      48.348050000000008     46.068950000000001     49.308000000000007
C      50.182849999999995     47.100350000000006     50.986400000000003
C      48.473750000000003     44.911050000000003     48.541100000000000
C      50.590250000000005     45.458950000000002     49.136099999999999
C      49.895249999999997     44.578850000000003     48.406499999999994
C      45.002550000000006     51.218550000000008     45.984800000000007
C      45.881750000000004     48.825850000000003     48.197199999999995
C      46.360650000000000     50.747050000000002     46.032899999999998
C      47.241750000000003     48.583150000000003     48.883200000000002
C      46.301549999999999     49.245350000000002     45.702600000000004
C      46.108449999999998     48.273650000000004     46.725899999999996
C      46.354649999999999     48.996549999999999     44.376999999999995
C      46.017150000000008     47.092050000000000     46.110500000000002
C      46.264249999999997     47.639449999999997     43.791499999999999
C      45.791950000000007     46.685749999999999     44.736800000000002
H      45.053649999999998     48.190650000000005     48.457499999999996
H      48.348050000000008     46.318749999999994     52.163200000000003
H      49.660850000000003     47.390050000000002     53.145700000000005
H      47.679049999999997     47.443250000000006     50.919300000000007
H      46.437149999999995     46.739249999999998     49.506200000000007
H      51.093849999999996     47.533950000000004     51.073599999999999
H      47.634049999999995     44.320350000000005     48.005099999999999
H      51.695249999999994     45.215249999999997     49.290000000000006
H      50.228349999999999     43.642049999999998     48.062500000000000
H      44.596550000000001     52.357950000000002     45.692999999999998
H      44.304750000000006     50.609050000000011     45.731400000000008
H      45.543950000000002     49.912950000000009     48.518000000000001
H      47.186550000000004     51.244050000000001     45.505200000000002
H      48.107650000000000     48.637249999999995     47.975499999999997
H      47.791850000000004     49.373450000000005     49.255600000000001
H      46.413850000000004     49.930350000000004     43.839700000000008
H      45.969649999999994     45.940849999999998     46.849299999999999
H      46.491049999999994     46.943250000000006     42.854299999999995
H      45.281950000000002     45.712750000000000     44.524000000000001
