20

C      50.534849999999992     48.554499999999990     49.073149999999991
C      46.297549999999994     50.111700000000006     49.673149999999993
C      49.159749999999995     48.587700000000005     49.333550000000002
C      46.053249999999998     49.772900000000000     48.353749999999998
C      48.125749999999996     48.047400000000003     48.445250000000001
C      46.948450000000001     48.721499999999999     47.863950000000003
C      48.131250000000001     46.634000000000007     48.296550000000003
C      46.621949999999998     48.232999999999997     46.525050000000000
C      47.764849999999996     46.027800000000006     47.094250000000002
C      46.952349999999996     46.904100000000007     46.284649999999999
H      48.804349999999992     46.148200000000010     49.006450000000001
H      50.773949999999992     49.532200000000010     49.793350000000004
H      50.854250000000000     48.071500000000007     48.122050000000002
H      45.831550000000000     50.947099999999999     50.403350000000003
H      48.906249999999993     49.321199999999997     50.186549999999997
H      45.145750000000000     50.173499999999997     47.518450000000001
H      47.282149999999994     49.665700000000008     49.665149999999997
H      48.346049999999998     45.052900000000001     46.913850000000004
H      45.770949999999992     48.698300000000010     45.875050000000002
H      46.258249999999997     46.261100000000006     45.596649999999997
