5

C      48.254449999999984     48.294899999999991     47.918549999999996
H      48.230849999999990     47.183700000000002     47.798049999999996
H      48.549849999999992     48.669100000000000     48.864150000000002
H      48.753450000000001     48.816299999999998     47.135849999999998
H      47.246549999999999     48.747599999999991     47.654550000000008
