5

C      47.905649999999994     47.829449999999994     48.170899999999989
H      48.483350000000002     47.898649999999996     47.148699999999998
H      47.850949999999997     48.982350000000004     48.245500000000000
H      47.127549999999999     47.017649999999996     48.384200000000000
H      48.872450000000001     47.951250000000009     48.851300000000002
