21

C      47.718249999999991     47.824199999999998     50.364449999999991
C      47.932050000000004     46.859200000000001     49.159450000000000
C      49.161550000000005     46.119699999999995     46.530349999999999
C      47.945049999999995     47.710200000000000     47.888449999999999
C      48.605649999999997     47.504800000000003     46.645550000000000
C      46.870949999999993     48.628599999999992     47.679050000000004
C      48.759550000000004     48.476199999999992     45.674650000000000
C      47.039550000000006     49.789000000000001     47.002549999999999
C      48.240250000000003     49.703900000000004     46.262149999999998
H      46.495649999999998     47.769400000000005     50.655049999999996
H      47.912549999999996     48.905400000000000     50.429549999999999
H      48.675049999999999     47.616399999999999     50.977449999999997
H      50.082750000000004     46.159499999999994     45.830150000000003
H      47.336650000000006     45.919100000000000     49.157049999999998
H      48.856750000000005     46.265100000000004     49.423349999999999
H      49.107950000000002     45.599999999999994     47.552149999999997
H      48.543449999999993     45.454200000000000     45.759549999999997
H      45.917249999999996     48.495099999999994     48.165950000000002
H      49.661450000000002     48.346800000000002     45.022550000000003
H      46.234049999999996     50.545800000000000     47.071249999999999
H      48.734949999999998     50.508499999999998     45.914349999999999
