47

C      48.058299999999988     49.300149999999988     47.055399999999992
C      47.166699999999999     50.028350000000003     47.987299999999991
C      48.586499999999994     45.909250000000000     50.479100000000003
C      48.405700000000003     47.102850000000004     51.378599999999992
C      48.265999999999998     48.026650000000004     47.551199999999994
C      46.557599999999994     49.653050000000007     49.264799999999994
C      48.300599999999996     46.112849999999995     49.105099999999993
C      47.872899999999994     48.334249999999997     51.118600000000001
C      47.923399999999994     47.479450000000000     48.914800000000000
C      47.361200000000004     48.591049999999996     49.771899999999988
C      48.054600000000001     49.692850000000007     45.654200000000003
C      47.744799999999991     51.112749999999991     45.551899999999989
C      47.332500000000003     51.965850000000003     46.655199999999994
C      46.990399999999994     51.490850000000009     47.927199999999999
C      49.032999999999994     44.701349999999991     50.840399999999988
C      49.542700000000004     44.186250000000001     52.060699999999997
C      49.292200000000001     45.195650000000001     53.002399999999994
C      48.674900000000001     46.432249999999996     52.646400000000000
C      48.216599999999993     48.824150000000003     44.569899999999990
C      48.255099999999992     49.439350000000005     43.163799999999995
C      47.743400000000001     50.714249999999993     43.135099999999994
C      47.557299999999991     51.609549999999999     44.228399999999993
C      48.471799999999995     47.088750000000005     46.457200000000000
C      48.198100000000004     45.487250000000003     46.799300000000002
C      48.543799999999997     47.367549999999994     44.824399999999997
C      48.686900000000001     44.612150000000000     46.075499999999991
C      46.711999999999996     45.263350000000003     46.816099999999992
H      46.105899999999998     50.174450000000007     50.064799999999991
H      47.718899999999998     49.117149999999995     51.950199999999995
H      47.422199999999997     52.901949999999999     46.218699999999998
H      46.297199999999997     51.711750000000009     48.744299999999996
H      48.933699999999995     43.973950000000002     50.185999999999993
H      49.894100000000002     43.098050000000001     52.145600000000002
H      49.616199999999999     44.907250000000005     53.972099999999998
H      48.194099999999999     47.022849999999991     53.488999999999990
H      48.454199999999993     48.784750000000003     42.233300000000000
H      47.573000000000000     51.535550000000001     42.027900000000002
H      47.405200000000001     52.651750000000007     43.913799999999995
H      49.430599999999991     46.913849999999996     46.602499999999992
H      48.483699999999992     46.663349999999994     44.068799999999996
H      49.598700000000001     47.326049999999995     44.624399999999994
H      49.225999999999992     44.890550000000005     45.216499999999996
H      49.044300000000000     43.660449999999997     46.451200000000000
H      46.187399999999997     44.752449999999996     47.742799999999988
H      46.400799999999997     44.525250000000000     45.936499999999995
H      46.238999999999997     46.163849999999996     46.996099999999998
O      48.757199999999990     45.307249999999996     48.147199999999984
