6

C      48.338899999999995     48.324549999999995     47.662349999999989
C      47.484600000000007     47.575749999999999     48.075949999999999
H      49.288800000000002     48.079350000000005     47.493350000000000
H      48.429899999999996     49.396749999999997     47.626950000000001
H      46.711199999999998     48.363750000000010     48.506650000000000
H      47.221100000000000     46.603250000000003     48.285750000000000
