46

C      50.019699999999993     46.680449999999993     48.985749999999996
C      43.616500000000002     46.429750000000006     49.841750000000005
C      49.301200000000001     46.270949999999999     47.739550000000001
C      49.590400000000002     46.826350000000005     50.334349999999993
C      44.489599999999996     46.470450000000000     51.054150000000000
C      47.889400000000002     46.316150000000000     47.838650000000001
C      45.125900000000001     46.276650000000004     48.165250000000000
C      47.242300000000000     46.651450000000004     51.377249999999997
C      48.122799999999998     46.972650000000002     50.302450000000000
C      45.910600000000002     46.373550000000002     50.839049999999993
C      47.408000000000001     46.820350000000012     49.031950000000002
C      45.976799999999997     46.604350000000004     49.290849999999999
C      47.029000000000003     46.068450000000006     46.583150000000003
C      45.691000000000003     46.346250000000005     46.880749999999999
C      51.298200000000001     47.294549999999994     48.760250000000006
C      51.949300000000001     47.321649999999998     47.431850000000004
C      51.273600000000002     46.725749999999998     46.281650000000006
C      49.935800000000000     46.208250000000000     46.500150000000005
C      49.259000000000000     45.834949999999999     45.256650000000000
C      47.902799999999999     45.633250000000004     45.503350000000005
C      52.458500000000001     48.591950000000004     47.127850000000002
C      51.741799999999998     49.870350000000009     47.453350000000000
C      52.481200000000001     50.171450000000000     48.788250000000005
C      44.798400000000001     46.524950000000004     45.706949999999999
C      45.677900000000001     48.514850000000003     44.858499999999999
C      44.814000000000000     47.267150000000008     44.481140000000003
H      42.464900000000000     46.209350000000001     49.813950000000013
H      49.958100000000002     46.388550000000002     51.311350000000012
H      43.959000000000003     46.192850000000000     52.088749999999997
H      51.748400000000004     47.743350000000000     49.588750000000005
H      51.866999999999997     46.687650000000005     45.443750000000001
H      49.772599999999997     45.788350000000001     44.426360000000003
H      47.622399999999999     45.200550000000000     44.678730000000002
H      51.366799999999998     50.792849999999994     46.828450000000004
H      50.711500000000001     49.541050000000006     47.534150000000004
H      52.809899999999999     49.209949999999999     49.265350000000005
H      53.204700000000003     50.799450000000000     48.101750000000003
H      51.914000000000001     50.742150000000002     49.533049999999996
H      43.918099999999995     46.766849999999998     46.216349999999998
H      46.632500000000000     48.127550000000006     44.199210000000001
H      45.828000000000003     48.879850000000005     45.861350000000002
H      45.274799999999999     49.377450000000003     44.410950000000007
H      44.273200000000003     47.157350000000001     43.612850000000002
H      47.467900000000000     46.601550000000003     52.387149999999998
N      43.904899999999998     46.223750000000003     48.560750000000006
O      53.535100000000000     48.534350000000003     46.644850000000005
