55

C      48.252699999999997     48.943699999999993     46.407249999999991
C      46.911100000000005     48.871000000000002     46.415649999999999
C      47.539100000000005     51.922699999999999     43.166150000000002
C      48.983800000000002     50.003800000000005     45.715049999999998
C      46.218000000000004     50.016900000000000     45.797750000000001
C      48.852699999999999     51.626500000000000     43.699050000000000
C      48.305599999999998     50.774899999999995     44.725050000000003
C      46.862800000000007     50.730499999999999     44.902450000000002
C      49.157300000000006     47.918200000000006     47.065249999999999
C      48.502200000000002     46.645400000000002     47.418249999999993
C      47.091500000000003     46.492399999999996     47.351149999999997
C      46.307000000000002     47.741300000000003     47.127749999999999
C      50.281999999999996     48.433799999999998     47.726149999999997
C      51.025900000000007     47.461599999999997     48.574449999999999
C      50.590600000000009     46.114299999999993     48.488549999999996
C      49.257700000000000     45.634499999999996     48.119350000000004
C      51.122800000000012     49.649600000000000     47.164650000000002
C      50.430300000000003     50.152300000000004     45.935449999999996
C      50.889600000000002     51.043299999999995     44.933749999999996
C      50.300700000000006     51.619099999999996     43.793650000000000
C      44.601100000000002     50.396800000000006     45.929949999999998
C      43.564700000000002     47.279299999999999     46.949950000000001
C      44.884100000000004     47.511000000000003     47.063749999999992
C      46.590299999999999     45.313600000000001     48.103650000000009
C      45.810000000000002     46.793699999999994     51.563849999999995
C      45.861200000000004     45.900399999999998     52.551049999999996
C      45.899600000000007     45.862000000000002     49.420750000000005
C      46.823400000000007     46.637700000000002     50.356549999999991
C      48.726700000000008     44.322499999999998     48.403649999999999
C      44.216200000000001     49.681999999999995     44.833050000000000
C      52.447400000000002     49.828499999999998     47.383249999999997
H      52.139600000000002     47.664300000000004     48.961850000000005
H      51.466700000000003     45.518200000000000     48.695349999999998
H      51.084000000000003     51.973800000000004     42.964950000000002
H      51.884699999999995     51.417899999999996     44.759050000000002
H      44.182600000000008     49.864200000000004     46.828350000000007
H      43.394700000000000     46.312900000000006     47.469450000000002
H      42.941400000000002     48.165399999999998     46.796250000000008
H      44.590900000000005     51.512200000000000     45.621450000000003
H      45.628900000000002     44.919400000000003     47.639450000000004
H      45.316900000000004     47.784699999999994     51.785350000000001
H      45.228999999999999     46.076299999999996     53.567050000000002
H      46.439500000000002     44.933799999999998     52.605950000000000
H      47.737600000000000     46.490400000000001     50.020350000000001
H      46.601400000000005     47.707699999999996     50.197049999999997
H      49.496400000000008     43.381700000000002     48.494949999999996
H      43.072299999999998     49.695000000000000     44.816650000000003
H      44.916700000000006     48.749299999999998     44.806350000000002
H      44.334000000000003     50.228299999999997     43.811550000000004
H      47.456000000000003     52.618299999999998     42.432949999999998
H      53.058599999999998     50.153100000000002     46.516749999999995
H      52.908200000000008     49.278600000000004     48.150150000000004
N      46.561000000000007     51.637899999999995     43.945250000000001
O      44.785300000000007     45.413999999999994     49.609249999999996
O      47.500600000000006     44.081899999999997     48.383649999999996
