19

C      50.049999999999983     48.611699999999992     49.006099999999989
C      50.151499999999999     47.157199999999996     48.563699999999997
C      48.922899999999998     49.312899999999999     48.475000000000009
C      48.581000000000003     46.517699999999998     49.276800000000009
C      47.874700000000004     48.535399999999996     47.979500000000002
C      47.495699999999999     47.227300000000000     48.692599999999999
C      46.989999999999995     49.002399999999994     46.899400000000000
C      46.285399999999996     46.547399999999996     48.457400000000007
C      45.778099999999995     48.300599999999996     46.507000000000005
C      45.655799999999999     47.148299999999999     47.381000000000000
H      50.012500000000003     47.332599999999999     47.476100000000002
H      51.100400000000008     46.875399999999999     49.152300000000011
H      49.017099999999999     50.456299999999999     48.289600000000007
H      48.496600000000001     45.672300000000000     49.906599999999997
H      51.061300000000003     49.157599999999988     49.387400000000014
H      46.753799999999998     49.965599999999995     46.602600000000010
H      46.095799999999997     45.543700000000001     49.010500000000008
H      45.016800000000003     48.787599999999998     46.093400000000003
H      44.899599999999992     46.661899999999996     47.281199999999998
