16

C      50.103059999999992     48.218249999999998     49.096639999999987
C      47.502159999999996     46.321050000000000     48.839540000000000
C      48.686259999999997     48.350650000000002     48.584039999999995
C      47.362760000000002     47.547049999999999     49.004039999999996
C      48.586259999999996     49.455950000000001     47.735540000000000
C      46.299779999999998     48.117850000000004     48.699939999999998
C      47.467559999999999     49.672049999999999     46.875289999999993
C      46.400579999999998     49.137749999999997     47.592739999999992
H      50.398559999999989     47.765349999999998     49.953440000000001
H      50.732460000000003     49.071249999999992     48.719339999999995
H      48.496160000000003     45.776349999999994     48.939239999999998
H      46.639170000000000     45.785250000000005     48.551839999999999
H      49.474060000000001     49.920850000000002     47.258730000000000
H      45.267539999999997     47.849350000000001     49.248439999999988
H      47.339460000000003     50.223650000000006     46.046559999999999
H      45.378619999999998     48.751850000000005     47.196639999999995
