6

C      47.883749999999992     47.660199999999996     48.701650000000001
C      48.197150000000008     48.071600000000004     47.476149999999997
H      46.691649999999996     47.440500000000000     48.895750000000000
H      48.973250000000007     47.466000000000008     49.122549999999997
H      49.308350000000004     48.065100000000001     47.205950000000009
H      47.350350000000006     48.559500000000000     46.877450000000003
