41

C      48.342624999999991     48.808399999999992     48.120899999999992
C      47.507024999999999     49.884799999999991     47.864100000000008
C      50.760824999999997     51.798600000000000     50.549400000000006
C      49.617725000000007     48.888100000000001     48.896500000000003
C      47.740124999999999     51.241199999999999     48.573500000000010
C      51.029924999999999     50.471400000000010     50.182000000000002
C      49.749025000000003     50.194600000000001     49.516500000000008
C      48.892224999999996     51.309800000000003     49.388000000000005
C      48.001925000000000     47.433700000000002     47.874900000000011
C      46.795164999999997     47.222300000000004     47.350300000000004
C      45.723754999999997     48.297600000000003     47.068700000000007
C      46.217784999999999     49.485599999999998     47.394900000000007
C      49.015025000000001     46.279900000000005     48.298299999999998
C      48.916725000000000     44.992699999999999     47.821100000000001
C      47.427225000000000     44.734600000000000     47.737800000000007
C      46.639335000000003     45.742899999999999     47.089799999999997
C      50.164024999999995     46.598700000000001     49.070599999999999
C      50.643024999999994     47.959200000000003     49.191900000000004
C      51.942525000000003     48.175500000000000     49.944500000000005
C      52.122325000000004     49.553400000000003     50.318700000000007
C      44.477015000000002     47.948399999999999     46.349800000000002
C      43.697924999999998     48.846400000000003     45.848799999999997
C      53.243125000000006     47.437700000000000     49.842600000000004
C      42.672274999999999     49.280500000000004     45.194800000000001
H      51.435124999999999     52.320900000000002     51.300100000000000
H      47.288145000000000     52.241499999999995     48.242100000000008
H      45.594904999999997     50.464199999999998     47.345699999999994
H      47.046185000000001     43.920000000000002     48.281100000000009
H      45.522385000000000     45.765100000000004     46.652000000000001
H      53.882824999999997     48.105000000000004     49.284199999999998
H      53.028525000000002     50.098399999999998     50.794000000000011
H      44.036745000000003     47.018400000000000     46.133099999999999
H      42.331715000000003     50.332100000000004     45.182100000000005
H      49.899625000000000     43.679099999999998     47.025099999999995
H      50.209024999999997     45.013800000000003     50.070500000000010
H      53.769824999999997     47.626800000000003     50.781800000000004
H      53.017624999999995     46.297100000000000     49.500900000000001
H      42.117175000000003     48.573999999999998     44.699900000000000
N      49.580125000000002     52.162700000000008     50.197699999999998
O      49.945225000000008     44.101500000000001     47.906900000000007
O      50.765425000000000     45.583900000000000     49.697900000000004
