5

C      47.983399999999989     47.938099999999991     48.045299999999990
H      48.948700000000002     47.652999999999992     48.587599999999995
H      48.397599999999997     48.112600000000000     47.129599999999996
H      47.883899999999997     48.649400000000000     48.870400000000004
H      47.051299999999998     47.350600000000000     48.186199999999999
