5

C      48.122349999999983     47.834699999999984     48.288099999999993
H      48.652349999999991     48.800200000000004     48.076999999999998
H      48.951850000000000     47.199799999999996     48.680199999999999
H      47.048150000000000     48.092500000000001     48.667800000000000
H      47.722349999999999     47.670400000000001     47.319800000000001
