39

C      47.448899999999995     46.012049999999988     49.865299999999991
C      48.176300000000005     47.569350000000000     47.799899999999994
C      48.828800000000001     46.616150000000005     49.895399999999995
C      49.319099999999999     47.025350000000003     48.632300000000001
C      49.839700000000001     46.343550000000008     51.033400000000000
C      50.762599999999999     46.836749999999995     48.316400000000002
C      51.156699999999994     46.690349999999995     50.782600000000002
C      51.607199999999999     46.590750000000000     49.397300000000001
C      44.443899999999999     47.340350000000001     45.708700000000007
C      45.151800000000001     46.422650000000004     44.831199999999995
C      45.022900000000000     48.682450000000003     45.647199999999998
C      46.780700000000003     46.349350000000001     45.488299999999995
C      46.497300000000003     48.881250000000009     45.898399999999995
C      47.398000000000003     47.706850000000003     45.713099999999997
C      46.990800000000000     50.116550000000004     46.030400000000000
C      48.859800000000000     47.943250000000006     46.281700000000001
C      48.420700000000004     50.308850000000007     45.929100000000005
C      49.177600000000005     49.228049999999996     45.700299999999999
H      47.286999999999999     44.908249999999995     50.531500000000008
H      47.045800000000000     45.696950000000001     48.891099999999994
H      47.472400000000000     46.643150000000006     47.478600000000000
H      47.678999999999995     48.355350000000001     48.308700000000002
H      49.588400000000000     46.388250000000014     52.159499999999994
H      51.033300000000004     47.010450000000006     47.112099999999998
H      51.920799999999993     46.581450000000004     51.617199999999997
H      52.710400000000000     46.577449999999999     49.269499999999994
H      46.581099999999999     46.351349999999996     50.482800000000012
H      44.428699999999999     46.985650000000007     46.920500000000004
H      43.289600000000000     47.153149999999997     45.595900000000000
H      45.428100000000001     46.985749999999996     43.840500000000006
H      44.739699999999999     45.381349999999998     44.738299999999995
H      44.385700000000000     49.664350000000013     46.171999999999997
H      45.152100000000004     49.148250000000004     44.357699999999994
H      47.271100000000004     45.743650000000002     44.564499999999995
H      46.714200000000005     45.989350000000002     46.476900000000001
H      46.340400000000002     51.028050000000007     45.939400000000006
H      49.704299999999996     47.183650000000000     46.067800000000005
H      48.772800000000011     51.091750000000005     45.452299999999994
H      50.145400000000002     49.361950000000007     45.249899999999997
