22

C      46.581650000000003     46.463349999999991     48.605599999999995
C      46.848250000000007     47.436050000000002     49.966999999999992
C      46.846550000000008     46.877749999999999     47.126899999999999
C      46.506950000000003     48.824550000000002     49.294600000000003
C      47.609350000000006     48.186750000000011     47.133800000000001
C      47.719250000000002     48.880350000000000     48.389900000000004
C      48.204250000000002     48.909150000000004     45.981700000000004
C      49.001050000000006     49.594250000000009     48.606400000000001
C      49.263950000000008     49.788450000000005     46.133700000000005
C      49.810450000000003     49.927550000000004     47.424300000000002
H      47.050750000000008     45.384149999999998     48.814800000000012
H      45.497650000000007     46.583049999999993     48.798000000000009
H      47.978850000000008     47.535850000000003     50.301400000000001
H      46.035850000000011     47.233350000000002     50.887200000000000
H      46.017050000000012     47.046849999999999     46.545000000000002
H      47.741350000000011     46.131350000000005     46.761200000000002
H      45.361750000000001     48.988650000000000     49.602800000000002
H      46.535850000000011     49.674050000000001     50.344799999999999
H      47.938650000000010     48.577649999999998     45.112800000000000
H      49.467250000000007     49.932150000000000     49.568899999999992
H      49.633450000000011     50.466250000000009     45.373500000000000
H      50.638249999999999     50.615850000000002     47.429000000000002
