20

C      46.958699999999993     50.546099999999996     47.261694999999989
C      45.465699999999998     46.553300000000000     48.745104999999995
C      47.137299999999996     49.418999999999997     47.705264999999997
C      46.176999999999992     46.753099999999996     47.658765000000002
C      48.254000000000005     48.426400000000001     47.570015000000012
C      47.665800000000004     47.143400000000000     47.536005000000003
C      49.657399999999996     48.704700000000003     47.364485000000002
C      48.577299999999994     46.066299999999998     47.048335000000009
C      50.488299999999995     47.599800000000002     47.308594999999997
C      49.993200000000002     46.221199999999996     47.007795000000002
H      47.762599999999992     50.953499999999998     46.472544999999997
H      45.894400000000005     50.819600000000001     47.475274999999996
H      46.108499999999992     46.649499999999996     49.527455000000003
H      44.463200000000001     46.140799999999999     49.085274999999996
H      46.382800000000003     49.058099999999996     48.412585000000007
H      45.792800000000000     46.841799999999999     46.482894999999999
H      50.121899999999997     49.576599999999999     47.514944999999997
H      48.210300000000004     45.046500000000002     46.726825000000005
H      51.536799999999999     47.969600000000000     47.024455000000003
H      50.776399999999995     45.425500000000000     46.628155000000007
