16

C      48.319749999999999     48.153599999999990     49.884199999999993
C      49.878650000000007     46.623300000000000     47.770899999999997
C      47.840850000000003     48.177900000000008     48.578699999999998
C      49.006450000000001     47.650700000000001     47.576200000000000
C      46.654949999999999     48.820099999999996     48.211500000000001
C      49.011650000000003     48.298800000000000     46.310499999999998
C      46.902950000000004     49.469099999999997     47.053199999999997
C      47.913250000000005     49.030799999999999     46.148399999999995
H      49.316549999999992     47.842100000000002     50.281099999999988
H      47.829250000000002     48.502299999999998     50.835400000000000
H      49.741450000000000     45.942499999999995     48.437399999999997
H      50.123049999999992     45.834600000000002     47.055000000000000
H      45.876950000000008     48.984300000000005     48.887699999999995
H      49.996049999999997     48.265499999999989     45.657899999999998
H      46.158150000000006     50.165399999999998     46.518400000000000
H      47.430350000000004     49.918099999999995     45.164600000000000
