22

C      45.415624999999991     48.502899999999997     47.621249999999989
C      49.981134999999995     50.013600000000004     46.391249999999999
C      46.490134999999995     48.772799999999997     48.619450000000001
C      48.905934999999999     49.676300000000005     47.546650000000000
C      47.855435000000000     48.025900000000000     48.882350000000002
C      49.048535000000001     48.740900000000003     48.711950000000002
C      47.990835000000004     46.693499999999993     49.462249999999997
C      50.320435000000003     48.165200000000006     49.101150000000004
C      49.088835000000003     46.163000000000004     50.022849999999991
C      50.236935000000003     46.975299999999997     49.837249999999997
H      49.110235000000003     50.665100000000002     48.034149999999997
H      44.632964999999999     47.868400000000001     47.906050000000008
H      45.616645000000005     48.403500000000001     46.486850000000004
H      50.069834999999998     49.179700000000004     45.691450000000003
H      50.373035000000002     50.948299999999996     45.807249999999996
H      46.225634999999997     49.477100000000000     49.492449999999991
H      48.103835000000004     49.145400000000002     47.106250000000003
H      50.636535000000009     49.300900000000006     47.019149999999996
H      47.088634999999996     45.830300000000001     49.680250000000001
H      51.275535000000005     48.820100000000004     49.022750000000002
H      49.203535000000002     45.051700000000004     50.308549999999997
H      51.367035000000001     46.771099999999997     50.121749999999992
