5

C      47.845299999999995     47.974884999999993     48.144849999999998
H      47.512400000000007     47.057225000000003     48.767949999999999
H      48.781799999999997     48.576075000000003     48.509749999999997
H      47.218200000000003     48.942774999999997     48.725250000000003
H      47.318000000000005     47.938105000000000     47.232050000000001
