10

C      48.137149999999991     47.305749999999996     48.292149999999992
C      47.588350000000005     47.422849999999997     49.560350000000000
C      47.433149999999998     48.037649999999999     46.181350000000009
C      47.591949999999997     48.447550000000007     47.484250000000003
H      49.068150000000003     46.365650000000002     47.962649999999996
H      47.048950000000005     48.380650000000003     49.447249999999997
H      47.927750000000003     46.737949999999998     50.468249999999998
H      47.264250000000004     48.923250000000003     45.531750000000002
H      46.931849999999997     47.056049999999999     45.729150000000004
H      47.759850000000000     49.634349999999998     47.733850000000004
