6

C      48.166099999999993     47.637499999999989     48.490149999999993
C      47.988000000000000     48.342399999999998     47.387549999999990
H      47.917200000000008     46.479900000000001     48.574649999999991
H      48.691800000000001     47.921599999999984     49.329250000000002
H      47.308199999999999     48.057199999999995     46.670749999999998
H      48.300899999999999     49.520099999999999     47.392049999999998
