86

C      44.337649999999996     44.678466999999998     43.802449999999993
C      47.345249999999993     51.445850000000007     43.000749999999996
C      44.672650000000004     44.606828000000007     45.268450000000001
C      48.167249999999996     51.312620000000003     44.117649999999998
C      44.713350000000005     45.825540000000011     42.889650000000003
C      46.625450000000001     50.416770000000007     42.457949999999997
C      45.958249999999992     46.008460000000007     47.031850000000006
C      48.307950000000005     50.024110000000000     46.306650000000005
C      46.653649999999999     47.147520000000007     47.548550000000006
C      48.129249999999999     48.864840000000008     47.063350000000000
C      45.712850000000003     48.103529999999999     42.506850000000000
C      45.265349999999998     45.839379999999998     45.678550000000001
C      47.892549999999986     50.062519999999999     44.926749999999998
C      47.162449999999993     47.904270000000004     46.481250000000003
C      45.372550000000004     47.060470000000002     43.417550000000006
C      46.485349999999997     49.084560000000003     43.133250000000004
C      45.785049999999998     46.835380000000008     44.787049999999994
C      47.267849999999996     48.817500000000003     44.311650000000000
C      46.676449999999988     47.902319999999996     45.221149999999994
C      43.456050000000005     43.665850000000013     43.293250000000000
C      43.461150000000004     42.364750000000008     44.066149999999993
C      43.896349999999998     42.233150000000030     45.389849999999996
C      44.676050000000004     43.416050000000013     46.018349999999998
C      45.409549999999996     43.631250000000016     47.242149999999995
C      46.131450000000001     44.859300000000012     47.702749999999995
C      47.490949999999998     52.780270000000002     42.208449999999999
C      48.259550000000004     53.802550000000004     42.898650000000004
C      48.910049999999998     53.583310000000004     44.176649999999995
C      48.943849999999998     52.253760000000007     44.687150000000003
C      44.132049999999992     45.793920000000007     41.365549999999999
C      43.586249999999993     44.488436000000007     40.804749999999999
C      42.604450000000000     43.897588000000006     42.065150000000003
C      48.248949999999994     49.240010000000005     48.504249999999999
C      49.423449999999988     47.001799999999996     52.001850000000005
C      50.150149999999996     47.868410000000004     51.209850000000003
C      47.210049999999995     51.029260000000001     53.327650000000006
C      48.265950000000004     47.552479999999996     52.787949999999995
C      49.471649999999997     49.058820000000004     50.631550000000004
C      47.374250000000004     49.625490000000006     53.884649999999993
C      47.899450000000002     50.954600000000006     52.043049999999994
C      48.188450000000003     48.953220000000002     52.834249999999997
C      48.470649999999992     49.679989999999997     51.614450000000005
C      49.991950000000003     45.709550000000014     52.352249999999998
C      51.299250000000001     45.593100000000000     51.450749999999999
C      52.186250000000001     46.610290000000013     50.775250000000000
C      51.509049999999988     47.854570000000002     50.759950000000003
C      49.843349999999987     45.004340000000006     53.521050000000002
C      50.613749999999996     43.733537400000003     53.468450000000004
C      51.462149999999994     43.462750000000028     52.452149999999989
C      51.914249999999996     44.429979000000003     51.533850000000001
C      48.879149999999996     45.631850000000007     54.454949999999997
C      48.168449999999993     47.166410000000006     54.158349999999999
C      47.786149999999992     47.898469999999996     55.251450000000006
C      49.467950000000002     48.921830000000007     49.198049999999995
H      46.121849999999995     51.020360000000004     41.675650000000005
H      48.785849999999996     50.983160000000005     46.772750000000002
H      47.184949999999986     46.990480000000005     48.594849999999994
H      45.707650000000001     47.714100000000009     41.600949999999997
H      43.533550000000005     41.516650000000034     43.360249999999994
H      43.672449999999998     41.262249999999987     45.992549999999994
H      45.524649999999994     42.859950000000033     48.109049999999996
H      46.853449999999995     44.891300000000008     48.508949999999999
H      46.684149999999988     53.115240000000007     41.693950000000001
H      48.579649999999987     54.737750000000013     42.354450000000000
H      49.157950000000000     54.410050000000005     44.774749999999997
H      49.607349999999997     52.151960000000010     45.586349999999996
H      43.452849999999998     46.442460000000004     41.173249999999996
H      44.412049999999994     43.738477600000003     40.521749999999997
H      45.004549999999995     45.802510000000005     40.615949999999998
H      43.031049999999993     44.601642000000005     39.828550000000007
H      42.116550000000004     44.802100000000003     42.428349999999995
H      42.218249999999998     42.930850000000021     42.141750000000002
H      47.316549999999992     49.599309999999996     49.150750000000002
H      47.972249999999988     44.899390000000004     54.569649999999996
H      47.021849999999986     51.982959999999999     53.846450000000004
H      48.186849999999993     51.820650000000008     51.488050000000001
H      53.182649999999995     46.498680000000007     50.695449999999994
H      52.386249999999990     48.551970000000004     50.426050000000004
H      50.177449999999993     43.014650000000010     54.452749999999995
H      51.701149999999998     42.389050000000005     52.384950000000003
H      49.150449999999992     45.663599999999995     55.548149999999993
H      47.874549999999985     47.554650000000002     56.171449999999993
H      53.883449999999996     44.294404000000007     51.256850000000000
H      50.245149999999995     48.257370000000002     48.724649999999997
N      47.346649999999997     49.130490000000002     55.035749999999993
O      53.004350000000002     43.830685000000003     50.959849999999989
