35

C      46.147649999999999     47.948749999999990     49.732849999999992
C      47.168950000000002     49.423049999999996     48.259050000000002
C      45.187150000000010     46.915349999999997     49.875050000000002
C      46.375750000000004     48.162149999999990     48.358049999999999
C      44.829650000000008     46.376750000000001     48.508949999999999
C      45.709650000000003     47.072550000000000     47.548650000000002
C      44.206750000000007     45.056849999999997     48.248249999999999
C      45.863550000000011     46.302349999999997     46.351950000000002
C      44.463450000000002     44.580050000000000     47.000050000000002
C      45.237650000000009     45.071550000000002     46.029249999999998
C      49.739650000000005     50.513849999999998     48.551749999999998
C      48.870950000000001     49.298150000000000     48.158949999999997
C      50.953050000000012     49.561250000000001     49.307250000000003
C      49.496350000000000     47.925350000000002     48.348649999999999
C      50.749749999999999     48.084849999999996     48.991550000000004
C      49.034250000000007     46.751849999999997     47.685549999999999
C      51.396050000000010     46.866749999999996     49.374850000000002
C      49.753250000000001     45.652549999999998     48.152149999999999
C      50.939850000000000     45.591850000000001     48.984650000000002
H      49.917450000000009     51.201650000000008     47.830150000000003
H      46.471850000000011     48.784349999999996     50.355150000000002
H      46.791450000000005     50.099650000000004     49.011350000000000
H      46.709250000000004     49.569049999999997     47.191850000000002
H      44.567950000000003     46.745049999999999     50.771149999999999
H      43.611550000000001     44.569150000000000     48.789149999999999
H      46.395550000000007     46.753650000000000     45.541449999999998
H      45.257350000000010     44.462550000000000     45.228850000000001
H      49.633050000000004     51.537450000000000     49.151550000000000
H      52.166050000000006     49.912649999999992     49.235849999999999
H      49.066750000000006     49.638750000000009     47.066749999999999
H      50.842550000000010     49.456449999999997     50.410049999999998
H      48.177350000000011     46.308749999999996     47.048850000000002
H      52.388449999999999     46.983550000000001     49.880749999999992
H      49.396050000000010     44.694249999999997     47.861649999999997
H      51.338550000000005     44.565350000000002     49.173749999999998
