5

C      47.827749999999995     48.029549999999986     48.185699999999990
H      47.576349999999998     48.478850000000001     47.130700000000004
H      47.079749999999997     47.265549999999998     48.387100000000004
H      48.920250000000003     47.878349999999990     47.861199999999997
H      47.818750000000001     48.734450000000002     48.869299999999996
