8

C      48.086399999999990     48.423499999999997     47.417149999999999
C      48.254700000000000     47.480900000000005     48.641050000000007
H      49.091400000000000     46.772199999999998     48.832850000000008
H      48.629700000000000     49.319299999999998     47.587950000000006
H      46.908600000000000     48.498999999999995     47.230550000000008
H      47.283200000000001     46.680700000000002     48.556150000000002
H      48.040099999999995     48.070300000000003     49.442650000000000
H      48.540399999999998     48.013999999999996     46.557350000000000
