19

C      46.171099999999996     49.344200000000001     49.151599999999995
C      47.537610000000001     47.253299999999996     45.827199999999998
C      47.191319999999990     49.578600000000009     48.430799999999998
C      48.113529999999997     47.385500000000008     47.273899999999998
C      48.133529999999993     48.433099999999996     48.216400000000000
C      49.056829999999991     46.350000000000009     47.513500000000001
C      49.127929999999992     48.516400000000004     49.293999999999997
C      49.961929999999995     46.444800000000001     48.585599999999999
C      50.029529999999994     47.453600000000009     49.590299999999999
H      47.271829999999994     50.640199999999993     48.152500000000003
H      45.221270000000004     50.030699999999996     49.222399999999993
H      46.087029999999999     48.401800000000009     49.533900000000003
H      46.411099999999990     46.964600000000004     46.460299999999997
H      47.912459999999996     46.502800000000008     45.344700000000003
H      47.150389999999987     48.191600000000008     45.564300000000003
H      49.167329999999993     45.359800000000007     46.977400000000003
H      49.039230000000003     49.330100000000002     49.814599999999999
H      50.778729999999996     45.742800000000003     48.541100000000000
H      50.442629999999994     47.339200000000005     50.655299999999997
