15

C      47.310350000000000     50.134050000000002     48.629049999999999
C      47.793349999999990     48.668150000000004     48.295450000000002
C      46.838350000000005     48.143650000000001     47.235349999999997
C      48.818149999999989     48.124950000000005     49.156549999999996
C      47.265649999999994     46.770950000000006     47.054349999999999
C      49.073849999999993     46.859750000000005     48.818849999999998
C      48.117149999999995     46.156750000000002     47.981449999999995
H      48.120450000000005     50.879449999999999     48.536950000000004
H      46.413049999999998     50.294350000000001     49.207250000000002
H      46.067650000000000     48.852650000000004     46.747250000000008
H      49.172049999999999     48.775250000000007     49.931150000000002
H      47.006749999999997     46.032550000000001     46.068849999999998
H      49.932350000000000     46.399650000000001     49.527850000000001
H      47.870050000000006     45.120550000000001     48.015550000000005
H      46.496049999999997     50.580149999999996     47.882350000000002
