19

C      47.730449999999990     46.649449999999987     50.702349999999996
C      45.386950000000006     47.240449999999996     45.849249999999998
C      47.635950000000001     46.621150000000000     49.307250000000003
C      46.423049999999996     47.224050000000005     46.680650000000000
C      48.397349999999996     47.391650000000013     48.266350000000003
C      47.676350000000006     47.673349999999999     46.974950000000000
C      49.787250000000007     47.701949999999997     48.246150000000000
C      48.136749999999999     48.804749999999999     46.241849999999999
C      50.395249999999997     48.235550000000003     47.053550000000001
C      49.544850000000004     49.026450000000011     46.120849999999997
H      46.833250000000000     46.191350000000000     51.146350000000005
H      48.942550000000004     47.003550000000004     51.337550000000000
H      45.437450000000005     47.783850000000001     44.662450000000000
H      46.456650000000003     46.581550000000007     49.063650000000003
H      44.498449999999998     46.510549999999995     46.404949999999999
H      50.469450000000002     47.592349999999996     49.135550000000002
H      47.500650000000000     49.574650000000005     45.851250000000000
H      51.501550000000002     48.248850000000004     47.102249999999998
H      49.943949999999994     49.808650000000000     45.353850000000001
