6

C      47.667899999999989     47.449649999999998     48.287229999999994
C      48.122000000000000     48.374049999999997     47.556599999999989
H      48.479799999999997     46.652450000000002     48.630979999999994
H      47.181100000000001     47.612650000000002     49.239170000000001
H      48.818899999999999     48.210849999999994     46.760829999999999
H      47.636899999999997     49.347549999999998     47.606399999999994
