21

C      49.626649999999998     47.123799999999996     46.764099999999999
C      50.232050000000001     46.428699999999992     48.019300000000001
C      48.254750000000001     47.224299999999999     46.484700000000004
C      48.596050000000005     49.326200000000000     47.622600000000006
C      47.199250000000006     47.603099999999998     47.369700000000009
C      47.568449999999999     48.762699999999995     48.039800000000000
C      46.278450000000007     46.863399999999999     48.005200000000002
C      47.018450000000001     49.364499999999992     49.280799999999999
C      45.735249999999994     47.419699999999992     49.203699999999998
C      45.817250000000001     48.753100000000003     49.652799999999999
H      49.962649999999996     46.786799999999999     45.676900000000003
H      50.428950000000000     47.043999999999997     49.052000000000007
H      51.205550000000002     45.800299999999993     47.537499999999994
H      47.734650000000002     47.643500000000003     45.485700000000008
H      49.699750000000009     45.499099999999999     48.229699999999994
H      49.664850000000001     48.782299999999992     47.921499999999995
H      46.228149999999999     45.700999999999993     47.660799999999995
H      47.328350000000000     50.500900000000001     49.695900000000009
H      44.794449999999998     46.605000000000004     49.496700000000004
H      45.330749999999995     49.171899999999994     50.514299999999992
H      48.512950000000004     50.223399999999998     47.005600000000001
