9

C      47.334524999999985     48.118799999999993     47.805399999999992
C      47.526425000000003     46.999199999999995     47.108699999999999
C      48.686965000000001     48.332299999999996     48.676900000000003
H      46.420334999999994     48.662500000000001     47.866700000000002
H      49.579665000000006     48.033099999999997     48.267000000000003
H      48.620905000000008     46.507899999999999     47.007200000000005
H      46.854884999999996     46.648499999999991     46.267900000000004
H      48.759315000000001     47.781299999999995     49.732099999999996
H      48.482195000000004     49.492100000000001     49.075200000000002
