22

C      48.416249999999984     46.575949999999999     45.809859999999993
C      46.810249999999996     46.705849999999998     45.510719999999999
C      49.004049999999992     48.025850000000005     45.870339999999999
C      46.664249999999996     46.883650000000003     47.053240000000002
C      48.691850000000002     48.553849999999997     47.312350000000002
C      47.609250000000003     47.775549999999996     47.815219999999997
C      49.567449999999994     49.358750000000001     48.066040000000001
C      47.843750000000000     47.391149999999996     49.127690000000001
C      49.090249999999997     49.430049999999994     49.405889999999999
C      48.216349999999991     48.444850000000002     49.999949999999998
H      48.575850000000003     45.896749999999997     46.652760000000001
H      48.941850000000002     45.661950000000004     45.322940000000003
H      46.418650000000000     45.849149999999995     45.059330000000003
H      46.682050000000004     47.683750000000003     45.252719999999997
H      48.648249999999990     48.556449999999998     44.996629999999996
H      50.067449999999994     47.927549999999997     45.658920000000002
H      46.970349999999996     45.964250000000007     47.615439999999992
H      45.502150000000000     47.184349999999995     47.256529999999998
H      50.497850000000000     50.001649999999998     47.789220000000000
H      47.505650000000003     46.345150000000004     49.515690000000006
H      49.482649999999992     50.338049999999996     50.029889999999995
H      48.147449999999992     48.349649999999997     51.003370000000004
