6

C      48.018299999999996     48.923197499999986     48.184599999999989
H      49.079000000000001     46.500052499999995     47.700799999999994
H      46.920999999999999     49.060197500000001     47.920899999999996
H      48.678000000000004     49.499947500000005     48.761599999999994
H      47.933700000000009     49.417657500000004     47.238400000000006
S      47.773600000000009     47.092369500000004     47.992799999999995
