20

C      46.354599999999998     48.398499999999984     45.891500000000001
C      50.210200000000000     48.380199999999995     45.595200000000006
C      47.284199999999998     49.115099999999991     46.717799999999997
C      49.863399999999999     47.417799999999993     46.546099999999996
C      47.935299999999998     48.485499999999995     47.983300000000000
C      49.122399999999999     47.691299999999991     47.782800000000009
C      47.326000000000008     48.359899999999989     49.248000000000005
C      49.492000000000004     46.563499999999998     48.614100000000008
C      47.754199999999997     47.372199999999999     50.172899999999998
C      48.940400000000011     46.626699999999992     49.869299999999996
H      45.439200000000000     48.693199999999997     46.199200000000005
H      46.680199999999999     47.438199999999988     45.666399999999996
H      49.557700000000011     49.285299999999999     45.979399999999998
H      50.560800000000000     48.194499999999998     44.637799999999999
H      46.858000000000004     49.976199999999999     47.232100000000003
H      50.402300000000011     46.428199999999997     46.562100000000001
H      46.375799999999998     48.868499999999990     49.493300000000005
H      50.461100000000002     46.025500000000001     48.264099999999999
H      47.583300000000008     47.397999999999989     51.362200000000001
H      49.413800000000009     46.023800000000001     50.695400000000006
