57

C      45.382249999999992     46.617749999999987     49.571999999999989
C      49.818249999999992     49.568440000000002     45.165199999999999
C      44.956549999999993     46.417849999999994     48.151899999999998
C      48.751249999999999     48.748160000000006     44.531199999999998
C      46.641049999999993     47.072049999999997     50.067200000000000
C      50.017249999999990     49.726639999999996     46.544700000000006
C      45.870549999999994     46.874249999999996     45.977500000000006
C      46.683849999999993     47.421607700000003     44.793000000000006
C      49.273849999999996     49.444050000000004     48.760999999999996
C      45.905749999999998     47.046249999999993     47.366900000000001
C      47.677049999999994     48.262360000000008     45.415900000000008
C      47.519250000000000     47.937413000000006     49.216800000000006
C      48.900849999999991     49.222310000000000     47.356400000000008
C      47.309749999999994     47.586526000000006     47.792000000000002
C      47.752150000000000     48.396260000000005     46.792500000000004
C      43.797950000000000     45.667549999999999     47.662500000000009
C      43.785950000000000     45.481450000000002     46.269000000000005
C      44.814650000000000     46.086649999999999     45.518600000000006
C      48.860149999999990     48.655000000000008     43.154300000000006
C      47.688549999999992     47.946143000000006     42.558099999999996
C      46.680250000000001     47.388719600000009     43.389300000000006
C      44.097749999999991     46.453150000000001     50.492999999999995
C      46.909049999999993     46.903749999999995     51.562700000000007
C      48.590249999999997     48.626010000000015     49.755099999999999
C      50.203949999999992     50.460990000000002     49.332800000000006
C      52.305650000000000     49.989240000000002     53.865200000000002
C      50.994249999999994     50.119950000000010     51.752099999999999
C      50.961050000000000     50.212039999999995     53.098400000000012
C      49.897649999999999     50.512350000000005     50.934400000000011
C      49.803950000000000     50.699670000000005     53.713200000000001
C      48.665449999999993     50.816610000000004     51.400999999999996
C      48.669550000000001     50.825040000000008     52.862600000000000
H      50.781149999999997     50.159530000000011     46.914800000000000
H      43.345050000000001     47.247250000000001     50.067300000000003
H      43.041550000000001     45.170650000000002     48.356099999999998
H      43.267849999999996     44.534950000000002     45.733000000000004
H      44.830950000000001     45.583549999999995     44.551100000000005
H      50.504349999999988     49.917490000000008     42.652299999999997
H      49.338650000000001     49.444130000000008     42.642700000000005
H      47.779649999999990     47.745868000000009     41.431899999999999
H      45.886349999999993     46.821649999999998     43.095700000000008
H      44.052449999999993     45.378049999999995     50.711900000000000
H      44.299250000000001     46.680050000000001     51.472800000000007
H      46.758649999999989     48.150494000000009     51.851300000000009
H      47.865249999999989     46.785350000000001     51.928600000000003
H      48.718049999999991     48.659200000000006     50.983100000000007
H      52.958449999999999     49.985150000000012     52.965900000000005
H      52.509149999999991     49.030760000000008     54.216000000000008
H      51.233350000000002     50.712430000000005     48.972999999999999
H      49.414249999999996     51.227660000000007     48.934700000000007
H      52.608449999999991     50.965080000000007     54.279300000000006
H      51.866649999999993     49.895230000000005     51.070900000000009
H      49.763149999999996     51.465049999999998     54.568100000000001
H      47.831750000000000     50.576330000000006     50.788899999999998
H      47.920850000000002     51.409970000000008     53.492800000000003
H      46.057049999999990     46.365249999999996     52.194699999999997
S      50.776550000000000     50.564030000000010     44.169200000000004
