5

C      48.360249999999986     48.242749999999987     47.948949999999989
H      48.799350000000004     48.565550000000002     48.938350000000000
H      47.200649999999996     48.245050000000006     47.913749999999993
H      48.474949999999993     47.213449999999995     47.906250000000000
H      48.411450000000002     48.786550000000005     47.061650000000000
