6

C      48.294799999999988     47.556799999999996     48.269849999999991
C      47.757399999999997     48.212200000000003     47.386749999999999
H      49.332300000000004     47.570900000000002     48.510549999999995
H      47.723099999999995     46.698799999999999     48.793250000000000
H      46.667699999999996     48.074900000000007     47.206750000000000
H      48.073899999999995     49.301200000000001     47.300349999999995
