34

C      48.055399999999992     47.158899999999988     51.026094999999977
C      48.413799999999988     48.495600000000003     51.159204999999986
C      48.685200000000002     47.571099999999994     45.962994999999992
C      49.277499999999996     48.778299999999994     46.061495000000001
C      48.263200000000005     46.658499999999997     49.738776999999985
C      49.104899999999994     49.128099999999996     50.038247999999989
C      48.265099999999997     47.008000000000003     47.193294999999992
C      49.662500000000001     49.298099999999998     47.348295000000000
C      48.373500000000000     47.484199999999994     48.523394999999979
C      48.928799999999988     48.757600000000004     48.638795000000016
C      48.043599999999998     45.203499999999998     49.649315999999985
C      47.627899999999997     44.778799999999997     48.394395000000003
C      47.597400000000000     45.754699999999993     47.302495000000015
C      49.559699999999999     50.504199999999990     50.114205999999989
C      49.974499999999999     51.243800000000000     48.995794999999973
C      50.411200000000001     50.368499999999990     47.792294999999989
C      45.551299999999998     44.263299999999994     46.841695000000001
C      46.823999999999998     44.945999999999991     46.207694999999994
H      47.897999999999996     49.097900000000003     51.861524999999986
H      47.900500000000001     44.404599999999995     50.483403999999986
H      47.239300000000000     43.609699999999997     48.188094999999997
H      49.037099999999995     51.211199999999998     50.773934999999987
H      49.731299999999997     52.390300000000003     48.870394999999988
H      51.353400000000001     50.590299999999992     47.217295000000000
H      45.252299999999998     43.627299999999998     47.770894999999982
H      49.917899999999996     50.337399999999995     45.331094999999991
H      47.189299999999996     45.452399999999990     51.818834999999993
H      48.753499999999995     47.544599999999996     43.989595000000008
H      47.574700000000000     44.168799999999997     45.964895000000013
H      46.492899999999999     45.533999999999999     45.385794999999995
O      44.646599999999999     44.198499999999996     46.019594999999974
O      49.516199999999998     49.475199999999994     44.893095000000010
O      47.335499999999996     46.445299999999996     52.010404999999992
O      48.588699999999996     46.916499999999992     44.769594999999981
