6

C      47.682449999999996     48.593350000000001     47.828850000000003
C      48.424050000000008     47.434150000000002     48.171149999999997
H      46.483450000000005     48.636250000000004     47.945250000000001
H      48.196650000000005     49.654349999999994     48.010850000000005
H      48.211950000000002     46.345650000000006     47.841250000000002
H      49.516549999999995     47.671850000000006     48.003850000000000
