82

C      48.307599999999987     47.453649999999989     47.226168499999993
C      47.572099999999992     46.188049999999997     46.955088500000002
C      48.623199999999997     47.375349999999997     42.702808500000003
C      48.786699999999996     48.157350000000008     46.121848499999999
C      47.427300000000002     45.523949999999999     45.622258500000001
C      49.164500000000004     48.218550000000000     43.663328499999999
C      48.065899999999999     46.142350000000000     43.121438500000004
C      48.837599999999995     47.474950000000000     44.908968500000000
C      48.218699999999998     46.163350000000001     44.659438500000000
C      48.532399999999996     48.244250000000001     48.515528500000002
C      47.804599999999994     47.655949999999997     49.507108500000001
C      47.141700000000000     46.294649999999997     49.403008499999999
C      46.760999999999996     45.828049999999998     48.027058499999995
C      49.103499999999997     49.543050000000008     48.731188500000002
C      49.162499999999994     50.113549999999989     50.056908500000006
C      49.017200000000003     49.215849999999989     51.191408499999994
C      48.398099999999999     48.068049999999999     50.803908500000006
C      49.488900000000001     50.297849999999997     47.505808500000001
C      49.283199999999994     49.470050000000001     46.332298500000000
C      47.708100000000002     45.355350000000001     50.344208500000001
C      47.539099999999991     43.959949999999999     50.650108500000002
C      45.806299999999993     44.663249999999998     48.223958500000002
C      46.385700000000000     44.360849999999999     45.756118499999999
C      45.294600000000003     44.322249999999997     46.735188500000000
C      49.835700000000003     50.109749999999991     45.053438499999999
C      49.424999999999997     49.713650000000001     43.603988500000000
C      48.251899999999992     46.871549999999999     51.890808500000006
C      48.968400000000003     45.803350000000002     51.046008499999999
C      49.250500000000002     51.644449999999992     50.336008500000005
C      50.253000000000000     52.221649999999997     48.935708500000004
C      49.601299999999995     51.807449999999989     47.623508500000000
C      44.616599999999991     45.185049999999997     49.160268500000001
C      47.005700000000004     45.432650000000002     42.508358500000000
C      46.467699999999994     45.828049999999998     41.263498500000004
C      45.530900000000003     44.896349999999998     40.900748499999999
C      46.813299999999998     45.445250000000001     53.966808499999999
C      48.372199999999992     45.377249999999997     54.394508500000001
C      51.166600000000003     43.743150000000000     55.436308500000003
C      49.239599999999996     44.385149999999996     53.642208500000002
C      50.498899999999992     43.995249999999999     54.018008499999993
C      49.308499999999995     44.314549999999997     52.087208500000003
C      51.369900000000001     43.754449999999999     52.959908499999997
C      50.634199999999993     43.896149999999999     51.779608499999995
H      48.708100000000002     47.596150000000009     41.598188499999999
H      47.103499999999997     43.264049999999997     45.643418500000003
H      44.709499999999991     45.254350000000002     46.648888499999998
H      44.517299999999992     43.478450000000002     46.755278500000003
H      49.762199999999993     51.361150000000002     45.074498500000004
H      50.902900000000002     50.378349999999998     45.338208500000000
H      48.483199999999997     50.268949999999990     43.194798500000005
H      50.182099999999991     49.613550000000004     42.768428499999999
H      47.017399999999995     46.728549999999998     51.866608499999998
H      48.646799999999999     47.406950000000002     52.675408500000003
H      49.895399999999995     46.205550000000002     50.612208499999994
H      46.614599999999996     43.508350000000000     50.318508500000000
H      48.505600000000001     52.425049999999999     49.723608499999997
H      49.606899999999996     51.934250000000006     51.395408500000002
H      51.222300000000004     51.907849999999996     49.040098499999999
H      50.247599999999991     53.308149999999998     49.054238499999997
H      50.269999999999996     52.103349999999999     46.837088500000000
H      48.668099999999995     52.350049999999996     47.353888499999996
H      44.676199999999994     46.275149999999996     49.414308500000004
H      48.683599999999998     49.057450000000003     53.066308500000005
H      46.877899999999997     44.387549999999997     42.931148499999999
H      45.358000000000004     44.802650000000000     39.784991500000004
H      46.793099999999995     46.794550000000001     40.868768500000002
H      45.605199999999996     43.982749999999996     41.466928500000002
H      46.366599999999991     44.550449999999998     54.301408500000008
H      46.768199999999993     45.664149999999999     52.867908499999999
H      46.210399999999993     46.529949999999999     54.011008500000003
H      46.242699999999999     43.683749999999996     48.618078499999996
H      51.535600000000002     42.691850000000002     55.558708500000009
H      48.570700000000002     44.801450000000003     55.265508500000003
H      48.906899999999993     46.447150000000001     54.478608500000007
H      50.311599999999999     43.688350000000000     56.215008499999996
H      51.795800000000000     44.624449999999996     55.709608500000002
H      45.922799999999995     44.541550000000001     44.822418499999998
H      52.419499999999999     43.509949999999996     53.292208500000001
H      50.977499999999992     43.556950000000001     50.818908499999992
N      48.193399999999997     43.410849999999996     51.653108500000002
O      43.580500000000001     44.827449999999999     48.696348499999999
O      49.310999999999993     49.411650000000002     52.471308500000006
