17

C      45.426199999999994     48.618499999999997     49.232649999999985
C      47.548099999999998     48.573099999999997     46.092349999999996
C      46.585899999999988     48.070399999999992     48.704049999999995
C      48.278599999999990     48.210999999999999     47.063450000000003
C      47.788199999999996     47.554900000000004     48.189049999999995
C      49.723299999999988     48.488900000000001     47.098050000000001
C      48.749300000000005     47.299199999999999     49.363150000000005
C      50.639499999999998     47.929500000000004     47.998350000000002
C      50.053799999999995     47.123599999999996     49.075149999999994
H      45.372799999999998     48.682699999999997     50.337149999999994
H      48.181500000000000     49.370599999999996     45.605350000000001
H      46.429199999999987     48.314200000000000     45.857349999999997
H      44.339500000000001     48.828400000000002     49.237549999999999
H      50.074800000000003     49.209599999999995     46.581950000000006
H      48.374400000000001     46.982100000000003     50.394649999999999
H      51.660499999999999     48.132899999999992     47.649850000000001
H      50.637899999999995     46.629400000000004     49.661950000000004
