22

C      46.067409999999995     47.017099999999999     47.508449999999996
C      45.558810000000001     47.874500000000005     48.551350000000006
C      47.132309999999997     47.384800000000006     46.517050000000005
C      46.687710000000003     48.771700000000003     49.322150000000001
C      48.098009999999995     48.375000000000007     47.164949999999997
C      47.947110000000002     48.321999999999996     48.602449999999997
C      49.285148000000000     48.481600000000007     46.415849999999999
C      49.216848000000006     48.366999999999997     49.212550000000000
C      50.395210000000013     48.414499999999997     47.259650000000001
C      50.559750000000008     48.333300000000001     48.694850000000010
H      45.521409999999996     46.281200000000005     47.062850000000005
H      46.468010000000000     46.152600000000000     48.040450000000000
H      44.958409999999994     47.498899999999999     49.448250000000002
H      44.509210000000003     48.400200000000005     48.545450000000002
H      46.803609999999999     47.993500000000004     45.621550000000006
H      47.684609999999999     46.397200000000005     46.194150000000000
H      46.420210000000004     49.847400000000000     49.564650000000007
H      46.597910000000006     48.659799999999997     50.446649999999998
H      49.634724000000013     48.423600000000000     45.553350000000002
H      49.405917000000009     48.455800000000004     50.315149999999996
H      51.100240000000007     48.105800000000009     46.650750000000002
H      51.490789999999997     47.798700000000004     49.166249999999998
