22

C      49.815550000000002     48.696399999999990     49.985149999999990
C      47.650649999999999     50.817899999999995     48.221349999999994
C      49.393850000000000     47.871200000000002     49.204349999999998
C      47.181849999999997     49.702900000000000     47.320050000000002
C      48.373450000000005     47.424599999999998     48.151149999999994
C      47.425049999999999     48.218599999999995     47.430349999999997
C      48.618049999999997     46.061199999999999     47.749150000000000
C      46.656850000000006     47.482299999999995     46.448650000000001
C      47.995850000000004     45.568699999999993     46.618949999999998
C      46.998750000000001     46.225499999999997     45.937449999999998
H      47.350750000000005     49.771099999999990     46.256149999999998
H      49.819150000000008     48.577500000000001     51.084049999999998
H      50.188149999999993     49.915300000000002     49.751849999999997
H      48.498850000000004     50.199699999999993     48.665150000000004
H      50.145250000000004     47.169499999999999     49.190049999999999
H      46.008350000000007     49.849899999999991     47.188150000000000
H      48.104050000000001     51.479500000000002     47.679349999999999
H      49.118450000000010     45.222399999999993     48.618850000000002
H      45.811850000000007     47.849099999999993     45.967250000000000
H      48.030650000000009     44.520499999999998     46.323650000000001
H      46.647149999999996     45.909300000000002     44.915950000000002
H      46.886150000000001     51.340899999999991     48.825049999999997
