6

C      47.871449999999996     47.298549999999992     48.177999999999990
C      47.917449999999995     48.589850000000006     47.739000000000004
H      48.706550000000000     46.652049999999996     47.714100000000002
H      47.105449999999998     46.938250000000004     48.894099999999995
H      47.261350000000000     49.347950000000004     48.288799999999995
H      48.894550000000002     48.774250000000002     47.105900000000005
