5

C      47.652049999999996     48.075649999999996     48.097299999999990
H      47.313050000000004     48.601950000000009     47.244599999999998
H      47.532049999999998     48.931750000000001     48.755400000000002
H      48.791950000000000     48.191449999999996     48.149800000000006
H      47.208050000000000     47.068249999999999     48.190900000000006
