6

C      47.576774999999998     47.830549999999995     48.402849999999987
C      48.683944999999994     47.817850000000007     47.751050000000006
H      47.823925000000003     48.425449999999998     49.488550000000004
H      46.485065000000006     47.574550000000002     48.165949999999995
H      49.514934999999994     48.130850000000009     48.407250000000005
H      48.712444999999988     47.648550000000000     46.511449999999996
