16

C      46.409699999999994     46.449599999999990     47.484600000000000
C      48.679100000000005     45.725600000000000     47.816200000000002
C      47.331800000000001     47.415300000000002     47.424200000000006
C      48.723399999999998     46.962200000000010     47.688400000000009
C      47.244199999999992     48.825000000000003     47.391900000000000
C      49.649900000000002     47.904100000000000     47.644500000000001
C      48.224699999999999     49.854000000000013     47.113100000000010
C      49.563299999999998     49.344600000000000     47.407400000000003
H      45.327799999999996     46.759100000000004     47.330400000000004
H      46.727300000000000     45.352100000000007     47.577199999999998
H      48.664900000000003     45.481700000000004     48.942500000000003
H      48.385599999999997     45.048699999999997     47.057499999999997
H      46.257000000000005     49.089100000000002     47.437500000000007
H      50.672200000000004     47.740700000000004     47.606299999999997
H      48.034300000000002     50.951300000000003     47.115299999999998
H      50.398499999999999     49.956200000000010     47.807300000000005
