18

C      47.755749999999992     48.911399999999993     46.200399999999995
C      46.050249999999998     49.340199999999996     48.235600000000005
C      48.230749999999993     48.311999999999998     47.482200000000006
C      47.313549999999999     48.502499999999998     48.464200000000005
C      49.506749999999997     47.664699999999996     47.668300000000002
C      47.535949999999993     47.711399999999998     49.766199999999998
C      49.584649999999989     46.762199999999993     48.814099999999996
C      48.707150000000006     47.012400000000000     49.952300000000008
H      47.633850000000002     50.170400000000001     46.031600000000005
H      45.739449999999998     49.826200000000000     49.224800000000002
H      46.736049999999999     48.532600000000002     45.913300000000007
H      48.176449999999996     49.077600000000004     45.122799999999998
H      45.605950000000000     49.088799999999992     47.264600000000002
H      46.314249999999994     50.225200000000001     47.684600000000003
H      50.394050000000000     47.962800000000001     47.090299999999999
H      46.747949999999996     47.879599999999996     50.527100000000004
H      50.318449999999999     45.774799999999999     48.546900000000008
H      48.702949999999994     46.390500000000003     50.877200000000002
