36

C      46.773499999999991     48.431699999999992     44.156149999999990
C      46.271200000000000     49.493000000000002     43.357050000000001
C      45.066600000000001     49.079799999999999     42.737150000000000
C      44.787700000000001     47.645900000000005     42.677850000000007
C      45.505600000000001     46.557900000000004     43.262749999999997
C      46.532199999999996     46.991100000000003     44.076549999999997
C      47.410100000000000     48.334299999999999     45.612549999999999
C      48.672899999999998     47.510100000000001     45.748450000000005
C      50.702500000000001     47.999900000000004     47.394549999999995
C      49.216799999999999     48.185900000000004     47.216949999999997
C      47.730199999999996     49.365599999999993     49.634050000000002
C      50.918099999999995     47.989300000000000     48.687950000000001
C      48.824500000000000     48.802700000000009     50.426349999999999
C      50.128399999999999     48.367800000000003     49.858550000000008
C      48.542099999999991     49.010100000000001     51.854950000000002
C      50.938800000000001     48.311799999999998     51.116950000000003
C      49.460499999999996     48.975800000000000     52.871250000000003
C      50.778399999999998     48.978300000000004     52.332650000000001
H      46.839900000000000     50.440899999999999     43.127449999999996
H      44.449799999999996     49.900100000000002     42.171450000000007
H      43.970900000000000     47.819600000000001     42.006349999999998
H      45.079499999999996     45.559100000000001     43.377750000000006
H      49.513700000000000     48.280900000000003     45.441350000000000
H      48.896899999999995     46.472700000000003     45.730850000000004
H      47.941199999999995     50.121999999999993     48.964749999999995
H      51.388599999999997     47.640200000000000     46.719350000000006
H      48.927599999999998     49.243599999999994     47.365750000000006
H      48.874600000000001     47.470199999999998     48.000250000000008
H      46.981499999999997     48.553500000000007     49.342250000000007
H      52.029100000000000     47.609200000000001     48.873550000000009
H      47.366799999999998     49.102899999999998     51.979050000000001
H      51.977799999999995     48.050300000000000     51.009349999999998
H      49.325199999999995     49.400399999999998     53.993650000000002
H      51.607200000000006     48.968100000000000     53.046350000000004
H      47.179400000000001     46.215800000000002     44.505250000000004
O      46.654799999999994     48.691000000000010     46.451049999999995
