57

C      46.304199999999994     51.646334999999993     48.691449999999996
C      51.807900000000004     48.171754999999990     48.133350000000007
C      46.188700000000004     50.538685000000001     47.807350000000000
C      50.796300000000009     47.540551999999991     47.336349999999996
C      47.332600000000006     51.804904999999991     49.772050000000007
C      51.461800000000004     48.322614999999999     49.571449999999999
C      47.320500000000003     49.622204999999994     47.662149999999997
C      49.382200000000005     47.962634999999992     47.430650000000000
C      48.954400000000000     50.467424999999992     51.218150000000009
C      49.690700000000000     49.337014999999994     51.198850000000007
C      48.161700000000003     50.681995000000001     49.936949999999996
C      50.024500000000010     48.731124999999992     49.917650000000009
C      48.183800000000005     49.742474999999999     48.797150000000002
C      49.120699999999992     48.694954999999993     48.743549999999999
C      47.426300000000005     48.734634999999997     46.480050000000006
C      48.570399999999999     47.867671000000001     46.276049999999998
C      45.262100000000004     52.626894999999990     48.617649999999998
C      44.135100000000001     52.434635000000000     47.782950000000000
C      44.109500000000004     51.413164999999992     46.888450000000006
C      45.133500000000005     50.410704999999993     46.809250000000006
C      45.017299999999999     49.324275000000000     45.871150000000000
C      46.288800000000002     48.517555000000002     45.605450000000005
C      44.681500000000007     54.765194999999991     50.266350000000003
C      47.393800000000006     52.689834999999988     51.080449999999999
C      44.954900000000002     53.856884999999991     49.440849999999998
C      51.136600000000008     46.632995000000008     46.123350000000002
C      51.669999999999995     45.523994999999985     46.668549999999996
C      48.915399999999998     46.949502299999992     45.057649999999995
C      51.264099999999992     44.201794999999990     46.014350000000007
C      52.272800000000004     43.079995000000011     46.150149999999996
C      51.668699999999994     41.734695000000002     45.576149999999998
C      50.430900000000001     46.758194999999986     44.727750000000000
C      43.730100000000000     49.308104999999998     45.181150000000002
H      52.662200000000006     48.409324999999995     47.611950000000007
H      52.215600000000002     47.498787999999990     50.167150000000007
H      49.169699999999999     51.011894999999996     52.203749999999999
H      50.288600000000002     49.163064999999989     52.114750000000001
H      43.472500000000004     53.193124999999995     47.673450000000003
H      43.134599999999999     51.361864999999995     46.366650000000007
H      46.500800000000005     47.437833999999995     45.325950000000006
H      44.841200000000008     55.214005000000000     51.191850000000002
H      46.377400000000002     52.602834999999999     51.494950000000003
H      48.044599999999996     52.158054999999990     51.713450000000009
H      47.648000000000003     53.785775000000001     51.008949999999999
H      51.900800000000011     45.502195000000015     47.725250000000003
H      48.808200000000006     47.580222999999989     44.199849999999998
H      48.592800000000004     45.920895000000016     44.975350000000006
H      53.122599999999998     43.448394999999977     45.456350000000000
H      52.727700000000006     43.024295000000009     47.144250000000000
H      50.944100000000013     41.352794999999986     46.218350000000001
H      52.329300000000003     40.785995000000000     45.725750000000005
H      51.019200000000005     42.081895000000017     44.723250000000007
H      50.567300000000003     45.886794999999992     43.796250000000001
H      50.695500000000003     47.595897999999991     44.358050000000006
H      43.444800000000008     49.021384999999995     44.140349999999998
H      42.877400000000002     49.953674999999990     45.659149999999997
O      50.138700000000007     43.837295000000012     45.785449999999997
