5

C      48.009850000000000     48.114549999999994     48.087999999999994
H      48.086649999999999     47.252249999999997     48.915700000000001
H      47.972850000000001     47.531849999999999     47.084299999999999
H      47.094050000000003     48.747750000000003     48.419100000000007
H      48.905949999999997     48.696249999999999     48.219799999999999
