41

C      48.797995000000000     50.394849999999991     48.783179999999994
C      49.657754999999995     49.145049999999998     48.857399999999998
C      43.783675000000002     48.450449999999989     48.116799999999998
C      47.440834999999993     49.935350000000000     48.825299999999999
C      45.720134999999999     48.121849999999995     46.697429999999997
C      46.540035000000003     50.733049999999992     48.103749999999998
C      45.037954999999997     48.790349999999989     47.489269999999998
C      45.413595000000001     50.179749999999999     47.544150000000002
C      42.719705000000005     48.685149999999993     46.997459999999997
C      44.479084999999998     51.418349999999990     47.517659999999999
C      42.487965000000003     50.015349999999998     46.691369999999999
C      43.170195000000007     51.236750000000001     47.252279999999999
C      50.945854999999995     47.037750000000003     50.068970000000007
C      50.405554999999993     48.310649999999995     48.038449999999997
C      51.054855000000003     47.015850000000000     48.468269999999997
C      52.423154999999994     47.048749999999998     48.021929999999998
C      50.404854999999998     45.977249999999998     47.666969999999999
C      53.221654999999998     45.912149999999997     48.145209999999999
C      51.090755000000001     44.798049999999989     47.347270000000002
C      52.488254999999995     44.632549999999995     47.865459999999999
H      48.940964999999991     48.475349999999992     49.595439999999996
H      49.110275000000001     51.288449999999997     48.203800000000001
H      43.605185000000006     49.507249999999999     48.724209999999999
H      43.452335000000005     47.583950000000002     48.590420000000002
H      47.294375000000002     48.874249999999989     48.630780000000001
H      45.745504999999994     47.881949999999989     45.526170000000000
H      46.819204999999997     47.773649999999989     47.110050000000001
H      46.734195000000000     51.689649999999986     48.292609999999996
H      42.032134999999997     47.854450000000000     46.641700000000000
H      44.426985000000002     52.324950000000001     48.389299999999999
H      41.737544999999997     50.019149999999996     46.001219999999996
H      42.471935000000002     52.097849999999994     47.562649999999998
H      49.775454999999994     47.160349999999994     50.356049999999996
H      51.317254999999989     45.994850000000000     50.312210000000007
H      51.675454999999999     47.635149999999996     50.473830000000000
H      50.517354999999995     48.497249999999994     46.958529999999996
H      52.943254999999994     48.012149999999991     48.199619999999996
H      49.771455000000003     46.101450000000000     46.974939999999997
H      54.262455000000003     46.127249999999989     47.550600000000003
H      50.507054999999994     43.910449999999997     46.921050000000001
H      53.204054999999997     43.675049999999999     47.872729999999997
