19

C      48.755464999999987     49.367799999999995     49.451800000000006
C      49.746192000000001     49.018999999999998     48.328900000000004
C      47.244064999999999     48.993400000000001     49.066500000000005
C      48.818464999999996     48.159800000000004     47.381900000000002
C      47.426164999999990     48.271400000000000     47.826499999999996
C      49.134164999999989     47.345500000000001     46.366100000000003
C      46.424864999999990     47.443500000000000     47.155900000000003
C      48.193165000000000     46.414299999999997     46.248900000000006
C      46.945264999999999     46.211300000000001     46.655400000000000
H      49.215064999999989     49.019700000000000     50.428799999999995
H      48.860664999999990     50.590899999999998     49.732100000000003
H      50.022247000000000     50.109400000000001     47.864000000000004
H      50.658435000000004     48.672100000000000     48.724400000000003
H      46.659464999999990     48.423800000000000     49.954700000000003
H      46.514564999999997     49.756600000000006     48.719899999999996
H      50.118185000000004     47.244500000000002     45.833300000000008
H      45.341564999999996     47.562100000000001     47.522700000000000
H      48.545465000000000     45.444099999999999     45.571200000000005
H      46.319364999999998     45.409100000000002     46.309899999999999
