23

C      50.908049999999996     47.675249999999991     46.341650000000001
C      44.574850000000005     50.377950000000006     48.914549999999998
C      46.081550000000007     50.047750000000001     49.080249999999999
C      46.390150000000006     46.252649999999996     48.933850000000000
C      46.770750000000007     49.100249999999996     48.475249999999996
C      47.365050000000004     46.695050000000002     48.338050000000003
C      47.455850000000005     48.102849999999997     47.869450000000008
C      48.003250000000001     45.690050000000006     47.379349999999995
C      48.559450000000005     48.596849999999996     46.915650000000007
C      49.119950000000003     45.999950000000005     46.709049999999998
C      49.654050000000005     47.390650000000001     46.593750000000007
H      51.821449999999999     47.043849999999999     46.781950000000002
H      51.281150000000004     48.641749999999995     46.728850000000001
H      44.516650000000006     51.364550000000001     48.739150000000002
H      44.178550000000001     49.799950000000003     47.970649999999999
H      46.697750000000006     50.908650000000002     49.286250000000003
H      46.545150000000007     45.607250000000001     49.739350000000009
H      45.376350000000002     46.821249999999999     49.080050000000007
H      44.205950000000001     50.484150000000007     50.022550000000003
H      47.481250000000003     44.635449999999999     46.999249999999996
H      49.068950000000001     49.343750000000007     47.477049999999998
H      49.426650000000002     45.103950000000005     46.192150000000005
H      48.125350000000005     49.186950000000003     45.977449999999997
