15

C      47.881999999999998     49.029949999999992     45.777500000000003
C      47.590099999999993     49.314850000000007     48.304900000000011
C      47.745599999999996     48.404150000000001     47.144900000000000
C      48.031800000000004     48.810150000000000     49.575800000000008
C      48.236000000000004     47.204149999999998     47.417099999999998
C      48.362600000000000     47.468050000000005     49.934800000000003
C      48.403199999999998     46.746949999999998     48.799200000000006
H      47.897199999999998     50.196950000000001     47.768999999999998
H      48.068799999999996     48.183250000000001     45.102899999999998
H      48.818899999999999     49.638649999999998     45.522200000000005
H      47.063800000000001     49.929149999999993     45.799399999999999
H      48.496799999999993     49.568250000000006     50.182700000000004
H      48.517200000000003     46.345450000000000     46.715499999999999
H      48.628699999999995     46.963949999999997     50.897100000000002
H      48.936199999999999     45.803049999999999     49.011000000000003
