6

C      47.402149999999992     48.629299999999994     48.066200000000002
C      48.528649999999999     47.847400000000000     48.167900000000003
H      47.315750000000008     48.925100000000000     46.981600000000000
H      46.573250000000002     48.126600000000003     48.408100000000005
H      49.426749999999998     48.009100000000004     47.549700000000001
H      48.599550000000008     47.074900000000000     49.018400000000000
