22

C      46.354399999999984     45.685040000000001     47.621849999999995
C      47.229500000000002     46.019830000000006     48.945250000000009
C      46.660899999999998     47.414990000000010     49.005350000000000
C      48.716999999999999     46.229300000000002     48.433850000000000
C      47.422200000000004     48.409020000000005     48.161450000000009
C      48.678199999999990     47.670700000000004     47.908549999999998
C      47.031799999999990     49.474190000000007     47.298250000000003
C      49.513599999999997     48.581660000000007     47.171849999999999
C      47.901100000000000     50.270550000000007     46.460250000000009
C      49.270299999999992     49.880299999999998     46.716950000000004
H      47.165199999999999     45.489720000000005     46.851350000000004
H      45.854500000000002     44.756880000000002     47.585850000000001
H      45.480899999999991     47.606630000000003     48.691850000000009
H      45.853999999999999     46.565360000000005     47.449350000000003
H      47.086100000000002     45.157250000000005     49.695650000000008
H      46.612699999999990     47.929960000000015     50.039549999999998
H      48.835099999999997     45.586340000000007     47.458950000000009
H      49.522400000000005     45.998410000000014     49.115950000000005
H      46.187699999999992     49.856960000000008     47.404750000000000
H      50.519100000000009     48.512920000000001     47.208450000000006
H      47.801500000000004     51.243119999999998     45.960450000000002
H      50.158599999999993     50.260510000000004     46.223350000000003
