58

C      45.861570000000000     48.778079999999989     46.941649999999996
C      46.860950000000003     48.372739999999993     45.926050000000004
C      48.655920000000009     46.195209999999982     50.088550000000005
C      49.767219999999995     46.181010000000001     49.144249999999992
C      46.246250000000003     48.318949999999994     48.292450000000009
C      48.283760000000001     47.866579999999992     46.221550000000001
C      47.330390000000008     46.943889999999989     49.865349999999999
C      49.543199999999999     46.341362399999994     47.700250000000004
C      47.454400000000007     47.702249999999992     48.700250000000004
C      48.480330000000009     47.331849999999996     47.708449999999992
C      44.496898999999999     49.306089999999990     46.691850000000002
C      43.940062000000012     49.364939999999990     45.400849999999998
C      44.950890000000001     48.881560000000000     44.255749999999999
C      46.380189999999999     48.658109999999994     44.707349999999998
C      48.830920000000006     45.497609999999995     51.313050000000011
C      49.908140000000003     44.641010000000016     51.541650000000011
C      51.108699999999999     44.840910000000001     50.792750000000005
C      51.026180000000011     45.536610000000010     49.564450000000001
C      43.760850000000005     49.797469999999990     47.839250000000000
C      42.441450000000017     50.384489999999992     47.503950000000010
C      41.862449999999995     50.174779999999991     46.283850000000001
C      42.587550000000007     49.751209999999993     45.241050000000001
C      44.423326000000003     49.899399999999993     49.081650000000003
C      45.345670000000013     48.835719999999995     49.338850000000001
C      45.295740000000009     48.052759999999992     50.575450000000004
C      46.318899999999999     47.100018999999996     50.822150000000001
C      52.332340000000002     45.584109999999988     48.900950000000002
C      53.432450000000003     45.792409999999997     49.666850000000004
C      54.663749999999993     46.121910000000000     48.920650000000002
C      49.952620000000010     44.064309999999992     52.968550000000000
C      41.738550000000018     51.545739999999995     48.287749999999996
C      44.808970000000002     49.941330000000001     43.043350000000004
H      42.467950000000016     52.312379999999983     48.347050000000003
H      55.202250000000006     47.012547999999995     48.535250000000012
H      48.241469999999993     46.871156999999990     45.622750000000003
H      50.172430000000006     46.096109999999996     46.900750000000002
H      44.722284999999999     47.698639999999990     43.689050000000002
H      47.169860000000000     48.386019999999995     44.011949999999999
H      48.155060000000006     45.628009999999996     52.020949999999992
H      51.889780000000002     44.216009999999997     51.246150000000007
H      42.017350000000008     49.861859999999986     44.164549999999998
H      43.881771300000011     50.093329999999987     49.853650000000002
H      44.734063000000006     48.420759999999994     51.377050000000004
H      46.336000000000013     46.549414999999989     51.727450000000005
H      55.223550000000003     45.147110000000019     49.249649999999995
H      52.317490000000006     45.555809999999987     47.825150000000001
H      53.640420000000006     45.928309999999989     50.837850000000010
H      48.981720000000010     43.685210000000005     53.208750000000002
H      50.069200000000009     44.704609999999995     53.751449999999998
H      50.821530000000010     43.654710000000016     53.412849999999999
H      41.044750000000008     52.345289999999984     47.779650000000004
H      41.160949999999985     51.144329999999989     49.157350000000001
H      40.988750000000024     51.856299999999997     45.995850000000004
H      49.014120000000005     48.613849999999992     45.983150000000002
H      43.718550000000036     50.138509999999989     43.144550000000002
H      45.771140000000003     50.643969999999989     42.940550000000002
H      44.805010000000010     49.181509999999996     42.248550000000002
O      40.776449999999997     50.956519999999990     45.916950000000000
