94

C      47.681300000000000     50.083099999999988     48.980400000000003
C      46.446100000000001     49.932500000000005     49.637200000000007
C      45.882400000000004     52.393700000000010     45.174800000000005
C      44.629700000000000     51.738000000000000     45.625700000000009
C      48.052000000000007     50.721000000000004     47.745600000000010
C      45.371700000000004     50.261500000000012     48.829200000000000
C      47.004599999999996     51.848200000000006     45.874300000000005
C      44.448499999999996     50.735100000000003     46.690899999999999
C      46.972300000000004     51.028400000000005     46.939500000000010
C      45.546099999999996     50.856600000000000     47.666400000000010
C      48.736500000000007     50.040800000000004     49.997000000000000
C      48.554100000000005     49.506100000000004     51.407499999999999
C      47.199100000000001     49.173600000000008     51.988600000000005
C      46.284800000000004     49.426000000000002     50.997900000000001
C      45.875600000000006     53.441500000000005     44.183300000000003
C      44.804800000000000     53.948100000000011     43.765600000000006
C      43.441500000000005     52.368000000000009     44.875600000000006
C      50.047700000000006     50.451700000000002     49.553899999999999
C      51.050700000000006     50.435800000000000     50.637000000000000
C      51.141100000000009     49.426600000000008     51.748300000000000
C      49.738600000000005     49.090400000000002     52.088000000000008
C      49.355199999999996     51.213200000000001     47.251900000000006
C      50.392600000000002     51.013200000000012     48.260599999999997
C      52.043099999999995     48.500300000000010     52.289200000000008
C      53.413899999999998     48.992000000000004     52.219200000000001
C      52.926299999999998     45.217200000000005     48.869799999999998
C      50.456800000000001     51.781400000000005     51.598700000000008
C      42.239100000000008     51.776400000000010     44.673699999999997
C      43.453000000000003     49.810100000000006     43.189999999999998
C      41.978700000000003     50.339900000000000     45.082800000000006
C      42.287500000000009     49.301200000000009     44.086600000000004
C      41.154700000000005     49.836500000000001     46.133800000000008
C      41.907300000000006     47.898700000000005     44.197400000000002
C      41.169100000000000     48.484500000000011     46.547300000000007
C      40.949200000000005     47.866800000000012     45.282300000000006
C      54.404700000000005     48.062700000000007     52.349699999999999
C      54.551500000000004     46.765799999999999     50.240099999999998
C      54.402200000000008     46.735900000000001     51.677100000000010
C      54.038499999999999     45.484300000000005     49.846699999999998
C      53.984899999999996     45.765300000000011     52.626199999999997
C      54.065399999999997     44.328800000000001     50.792599999999993
C      53.672700000000006     44.536200000000008     52.179400000000001
C      50.028700000000001     43.385900000000007     46.300600000000003
C      51.757300000000001     45.326700000000002     49.867000000000004
C      50.461399999999998     44.213400000000007     47.296900000000008
C      50.961700000000008     44.001900000000006     49.892899999999997
C      50.840400000000002     43.554800000000000     48.512400000000000
C      50.913499999999999     43.072699999999998     50.967900000000000
C      50.545500000000004     42.099599999999995     48.527700000000010
C      50.454499999999996     41.675500000000000     50.951200000000000
C      50.409900000000007     41.176900000000003     49.574300000000008
H      47.853700000000003     52.182300000000012     45.327200000000005
H      43.437500000000000     50.315700000000007     46.915100000000010
H      46.659300000000002     48.856100000000012     52.904200000000003
H      45.244399999999999     48.884399999999999     51.135700000000000
H      46.710099999999997     53.454400000000007     43.461799999999997
H      51.994000000000000     50.808700000000002     49.912500000000009
H      49.692999999999998     48.200200000000009     52.686799999999991
H      49.556300000000007     51.760400000000004     46.439800000000005
H      51.318500000000000     51.721900000000005     48.272300000000001
H      53.698999999999998     50.021500000000003     52.019099999999995
H      44.676500000000004     55.865300000000005     43.457500000000010
H      43.844300000000004     49.850800000000007     50.222499999999997
H      52.816100000000006     43.880099999999999     48.575500000000005
H      52.837000000000003     46.026700000000005     48.124200000000002
H      43.776700000000005     49.220100000000002     42.361500000000007
H      51.025900000000007     52.748200000000011     51.579999999999998
H      49.570700000000002     52.143500000000003     51.069699999999997
H      50.515600000000006     51.385900000000007     52.568500000000000
H      41.359999999999999     52.558400000000006     44.265400000000000
H      42.914699999999996     50.695700000000002     42.494000000000000
H      44.109499999999997     50.170200000000008     43.964900000000000
H      40.774900000000002     50.640300000000011     46.933400000000006
H      42.016599999999997     47.650000000000006     43.160499999999999
H      40.464399999999998     48.218100000000007     47.463500000000010
H      40.650999999999996     46.925700000000006     45.648700000000005
H      51.715900000000005     47.738600000000005     52.943200000000004
H      54.773700000000005     47.669700000000006     49.709500000000006
H      53.908000000000001     46.012400000000000     53.638499999999993
H      54.225099999999998     43.420000000000002     50.178699999999992
H      53.387500000000003     43.734099999999998     52.966099999999997
H      55.535600000000002     48.599299999999999     52.340800000000002
H      50.345399999999998     45.191300000000012     47.135400000000004
H      49.985299999999995     42.291899999999998     46.372600000000006
H      52.038100000000000     45.594800000000006     50.862400000000008
H      51.140400000000000     46.287400000000005     49.764800000000008
H      49.830799999999996     43.713700000000003     45.215600000000009
H      51.312700000000007     43.468000000000004     51.914999999999992
H      50.609899999999996     41.249499999999998     47.778300000000002
H      50.592100000000002     40.701700000000002     51.398099999999999
H      50.196700000000007     40.134699999999995     49.218699999999998
N      43.712000000000003     53.342400000000012     44.064900000000009
O      45.046500000000009     55.126700000000000     43.017899999999997
O      44.159099999999995     50.486699999999999     49.627099999999999
