38

C      48.784199999999998     50.019849999999991     47.099649999999997
C      45.978400000000001     43.809349999999995     46.369450000000001
C      49.699300000000001     48.932149999999993     47.031250000000000
C      47.389000000000003     43.873449999999991     46.382549999999995
C      47.378900000000009     49.883449999999996     47.391049999999993
C      44.986300000000007     44.756050000000002     46.644849999999991
C      49.134300000000003     47.603650000000002     47.045950000000005
C      47.920500000000004     44.992750000000001     46.935249999999996
C      45.446600000000004     48.397049999999993     47.769549999999995
C      44.841600000000007     47.150350000000003     47.690349999999995
C      46.899600000000000     48.450549999999993     47.417049999999989
C      45.571300000000001     46.044849999999997     47.072249999999997
C      47.768700000000003     47.337350000000001     47.234949999999998
C      47.028800000000004     46.122649999999993     47.209549999999993
C      50.114400000000010     46.477549999999994     46.710349999999991
C      49.357600000000005     45.289649999999995     46.839150000000004
C      46.842500000000008     51.166049999999998     47.729349999999997
C      45.581800000000008     51.113450000000000     48.110249999999994
C      45.010300000000008     49.645349999999993     48.623149999999995
C      44.559100000000008     52.150949999999995     48.349149999999995
C      44.491700000000002     52.278349999999989     49.745249999999999
C      51.615500000000004     46.420649999999995     46.802650000000000
H      49.270000000000003     51.044849999999997     47.159849999999992
H      45.654600000000009     42.994850000000000     45.606949999999998
H      48.006700000000002     43.007149999999996     46.138549999999995
H      43.917999999999999     44.560850000000002     46.655850000000001
H      43.918500000000002     46.841149999999999     48.412449999999993
H      49.888000000000005     44.371849999999995     46.588449999999995
H      51.641600000000004     45.420450000000002     46.822350000000000
H      47.538100000000007     52.038049999999998     47.850949999999997
H      45.598600000000005     49.696550000000002     49.721049999999991
H      44.128100000000003     49.727949999999993     49.025549999999996
H      44.143800000000006     52.780949999999990     47.536749999999998
H      43.710900000000002     53.005150000000000     50.232950000000002
H      45.054800000000007     51.787949999999995     50.393050000000002
H      52.289099999999998     47.096549999999993     46.103349999999992
H      52.202800000000003     46.752349999999993     47.668749999999989
H      50.588400000000000     49.067049999999995     46.458150000000003
