6

C      48.570699999999995     48.069924999999998     48.308699999999995
C      47.590430000000005     47.672494999999998     47.693100000000001
H      48.708920000000006     49.091094999999996     49.055700000000002
H      49.462519999999998     47.467344999999995     48.044399999999996
H      47.719330000000006     46.908905000000004     46.944299999999998
H      46.537480000000002     47.787544999999994     48.058000000000007
