22

C      49.144599999999997     48.827900000000000     49.907739999999997
C      49.734999999999992     47.373200000000004     49.752640000000000
C      47.688600000000001     49.111899999999999     49.489540000000005
C      48.504500000000000     46.468899999999998     49.149140000000003
C      47.366899999999994     48.492500000000000     48.159540000000007
C      48.097799999999999     47.273699999999998     47.873940000000005
C      46.968699999999991     49.397799999999997     47.100760000000001
C      47.455300000000001     46.620800000000010     46.770740000000004
C      46.390300000000003     48.735000000000007     45.892270000000003
C      46.643999999999998     47.404200000000010     45.846960000000003
H      49.714899999999993     49.286300000000004     49.062340000000006
H      49.533700000000003     49.175000000000004     50.877640000000000
H      49.935099999999998     46.997599999999998     50.873540000000006
H      50.414999999999999     47.314399999999999     48.772940000000006
H      47.089099999999995     48.758100000000006     50.236240000000009
H      47.605799999999995     50.260899999999999     49.486240000000002
H      47.682499999999997     46.462499999999999     49.789540000000002
H      48.616399999999992     45.557600000000001     48.533040000000000
H      47.102899999999998     50.442399999999999     47.438520000000004
H      47.690700000000000     45.578600000000002     46.311500000000002
H      45.585000000000001     49.356400000000001     45.122360000000000
H      46.094000000000001     46.670800000000007     45.139250000000004
