34

C      46.047399999999996     48.693249999999999     49.887699999999995
C      51.317799999999998     49.385050000000007     45.388199999999991
C      47.175900000000006     48.007549999999995     50.107999999999997
C      46.108300000000007     49.951650000000001     49.113899999999994
C      51.648800000000001     49.112049999999996     46.731599999999993
C      49.990800000000000     49.877250000000004     45.085400000000000
C      49.683200000000006     47.791849999999997     49.875799999999991
C      50.672699999999999     47.874849999999995     48.849699999999991
C      47.576799999999999     50.400250000000000     45.955099999999995
C      48.423600000000000     48.513950000000008     49.465100000000000
C      46.875300000000003     49.719049999999996     47.997499999999995
C      50.485800000000005     48.721550000000008     47.514699999999998
C      48.859400000000001     49.818550000000002     46.023999999999994
C      48.116400000000006     48.806049999999999     48.128300000000003
C      49.233600000000003     49.057850000000002     47.183100000000003
C      44.751399999999997     48.432249999999996     50.637499999999996
C      44.479700000000001     47.049450000000000     51.101800000000004
C      45.722400000000000     46.345649999999999     51.233299999999993
C      47.143800000000006     46.759450000000001     50.806699999999999
C      48.153700000000008     45.770949999999999     50.371500000000005
H      52.007899999999999     49.534649999999999     44.582699999999996
H      45.593399999999995     50.831649999999996     49.395499999999991
H      52.512599999999999     49.065449999999998     47.032999999999994
H      49.778900000000000     50.345849999999999     44.185700000000004
H      51.508000000000003     47.418450000000007     48.814599999999992
H      47.492399999999996     51.042749999999998     45.011299999999999
H      43.487400000000001     46.661950000000004     51.152899999999995
H      45.332400000000000     45.346550000000001     51.434999999999995
H      47.441200000000002     44.957250000000002     50.480399999999996
H      50.925599999999996     47.285150000000002     51.814299999999996
N      46.607199999999999     50.304950000000005     46.790699999999994
O      49.327500000000008     46.068249999999999     49.967499999999994
O      50.391700000000007     48.088549999999998     51.229700000000001
O      43.952900000000007     49.319450000000003     50.771499999999996
