6

C      46.990549999999985     47.852049999999991     48.374299999999991
C      48.353449999999995     47.977349999999994     47.872799999999998
H      46.705349999999996     48.670250000000003     47.627199999999995
H      48.479950000000002     48.188549999999999     46.814399999999999
H      46.570849999999993     47.398949999999999     49.185600000000001
H      49.429150000000007     47.329749999999997     47.740400000000001
