6

C      48.316449999999996     47.979699999999987     48.757749999999987
C      48.199850000000005     47.624899999999997     47.387349999999998
H      47.455250000000007     47.908299999999997     49.426550000000006
H      48.831649999999996     48.860600000000005     49.119349999999997
H      48.780750000000005     48.025499999999994     46.573449999999994
H      47.168350000000004     47.139399999999995     47.157349999999994
