36

C      44.535549999999986     48.125349999999997     46.916549999999994
C      43.390649999999994     46.087550000000000     48.577750000000002
C      45.422650000000004     47.443050000000007     47.559650000000005
C      44.842150000000004     46.209250000000004     48.211249999999993
C      46.646349999999998     47.637950000000011     47.631250000000001
C      45.669449999999998     45.220850000000006     48.747550000000004
C      47.653350000000003     46.521850000000008     47.966850000000008
C      47.098849999999999     45.367550000000001     48.561150000000005
C      50.182749999999999     45.575150000000001     48.175950000000000
C      49.859650000000002     47.724550000000001     46.675350000000002
C      51.399349999999998     46.320550000000004     48.584850000000003
C      49.042349999999999     46.390450000000008     47.299549999999996
C      51.567949999999996     47.708050000000007     48.428550000000001
C      50.418250000000000     48.530350000000006     47.803950000000000
C      52.568049999999999     48.533850000000008     49.017050000000005
C      50.149249999999995     49.847950000000004     47.948149999999998
C      52.370850000000004     49.934550000000009     48.823550000000012
C      51.167450000000002     50.722349999999999     48.440449999999998
H      42.733649999999997     46.953250000000004     48.394850000000005
H      44.470150000000004     49.231850000000001     46.957450000000009
H      43.611850000000004     47.796349999999997     46.468350000000001
H      43.283450000000002     45.932850000000009     49.837249999999997
H      42.608949999999993     45.475749999999998     47.892350000000008
H      46.962949999999992     48.584550000000000     46.947649999999996
H      45.229349999999997     44.236849999999997     49.179250000000010
H      49.547049999999999     48.715049999999998     46.162750000000003
H      47.437349999999995     44.373750000000008     48.770650000000003
H      49.461550000000003     45.235350000000004     49.236149999999995
H      50.377650000000003     44.697550000000000     47.524550000000005
H      50.675550000000001     47.175249999999998     46.204350000000005
H      49.044150000000002     45.623950000000001     46.463650000000001
H      52.241050000000001     45.692750000000011     48.794049999999999
H      53.391050000000007     48.062649999999998     49.787950000000009
H      49.268150000000006     50.381350000000005     47.335449999999994
H      53.003050000000002     50.790650000000007     49.339250000000000
H      51.167050000000003     51.763150000000003     48.256050000000002
