19

C      46.308099999999989     46.017049999999990     47.325449999999989
C      47.030000000000001     46.917550000000006     46.476949999999995
C      48.686999999999998     49.893349999999998     45.726549999999996
C      47.549099999999996     48.025949999999995     47.250749999999996
C      48.450900000000004     49.163749999999993     47.059449999999998
C      47.336900000000000     47.589150000000004     48.634250000000002
C      49.448999999999998     49.402850000000001     47.962749999999993
C      48.188199999999995     48.134550000000004     49.666249999999998
C      49.174599999999998     49.003249999999994     49.347549999999998
C      46.828900000000004     46.239350000000002     48.690350000000002
H      47.724199999999996     49.900949999999995     45.243850000000002
H      45.742599999999996     45.056049999999999     47.111449999999998
H      47.378100000000003     45.614149999999995     49.459550000000000
H      47.071899999999999     46.625550000000004     45.446750000000002
H      48.961100000000002     50.943950000000001     45.764350000000000
H      49.498699999999999     49.374349999999993     45.261350000000000
H      50.257400000000004     50.043549999999996     47.646949999999997
H      48.403899999999993     47.460449999999994     50.756149999999998
H      49.939999999999998     49.263049999999993     50.046050000000001
