5

C      47.965749999999993     47.874799999999993     48.145649999999996
H      47.561850000000007     48.174500000000002     47.260750000000002
H      48.804850000000002     47.148000000000003     48.054750000000006
H      47.195149999999998     47.346299999999992     48.739249999999998
H      48.337350000000001     48.851999999999997     48.502949999999998
