6

C      47.535299999999999     48.033534999999986     47.331799999999987
C      48.414600000000007     47.943944999999999     48.336200000000005
H      47.004199999999997     48.965145000000007     47.222300000000004
H      46.987099999999998     47.079934999999992     46.926199999999994
H      48.712299999999999     48.839095000000000     49.073800000000006
H      49.012900000000002     47.034854999999993     48.678600000000003
