20

C      47.583899999999993     49.394999999999996     45.542099999999991
C      48.197600000000008     49.259900000000002     50.095800000000004
C      47.937799999999996     49.334800000000001     46.849600000000002
C      47.980199999999996     50.410600000000002     49.664200000000001
C      47.875399999999999     48.014300000000006     47.804899999999996
C      47.773600000000002     48.103300000000004     49.258099999999999
C      47.920900000000003     46.844600000000000     47.047499999999992
C      47.922100000000000     46.861900000000006     50.000599999999999
C      47.802900000000008     45.712000000000003     47.751500000000000
C      47.895300000000006     45.618099999999998     49.206000000000010
H      47.494900000000001     48.507000000000005     45.140999999999998
H      47.656100000000009     50.275300000000001     44.899200000000000
H      47.771400000000000     50.546899999999994     48.601300000000002
H      48.446600000000004     49.201700000000002     51.082699999999996
H      48.505099999999999     50.094399999999993     47.645200000000003
H      48.106099999999998     51.353499999999997     50.284600000000005
H      47.739699999999999     46.872799999999998     46.094699999999996
H      48.344499999999996     46.889799999999994     51.100800000000000
H      47.647900000000007     44.740099999999998     47.173000000000009
H      47.786799999999999     44.646500000000003     49.594600000000000
