16

C      46.825349999999993     47.979799999999997     45.674969999999995
C      47.161050000000003     47.101300000000002     46.738569999999996
C      47.671450000000007     48.686799999999998     50.021690000000007
C      47.897450000000006     47.733100000000000     47.877169999999992
C      47.003150000000005     48.086400000000005     48.939470000000014
C      49.010450000000006     48.600900000000003     47.596769999999992
C      48.991250000000001     49.225400000000000     49.961700000000008
C      49.594949999999997     49.269399999999997     48.648927100000002
H      47.259250000000009     48.918699999999994     45.732569999999996
H      46.979950000000002     48.873300000000008     50.886330000000001
H      45.848849999999999     47.870899999999999     45.113669999999999
H      46.816749999999999     45.911999999999999     46.941270000000003
H      46.121650000000002     47.717600000000004     49.054805000000002
H      49.515349999999998     49.033099999999997     46.691769999999991
H      49.369850000000000     49.556200000000004     50.851240000000004
H      50.151150000000001     50.088000000000001     48.428169999999994
