5

C      48.050349999999995     47.851349999999996     48.192749999999990
H      48.775649999999999     47.113050000000001     48.254950000000001
H      47.224350000000001     47.785249999999991     48.957850000000001
H      47.693749999999994     47.716449999999995     47.042149999999999
H      48.613950000000003     48.886949999999999     48.516050000000000
