24

C      49.687649999999991     50.364199999999997     45.888549999999995
C      47.201849999999993     48.599299999999999     50.042849999999994
C      46.090849999999989     47.737400000000001     50.231150000000007
C      48.759249999999994     49.528100000000002     46.859550000000006
C      48.526749999999993     48.689799999999998     49.392249999999997
C      49.274649999999994     48.093200000000003     47.142050000000005
C      48.693449999999999     47.673099999999998     48.425450000000005
C      49.676549999999992     47.064900000000002     46.141050000000000
C      48.304850000000002     46.257799999999996     48.597050000000003
C      49.015649999999994     45.826799999999999     46.207450000000001
C      48.181749999999994     45.671600000000005     47.353850000000001
H      50.634050000000002     49.896300000000004     45.554049999999997
H      49.643349999999998     51.501500000000000     46.641650000000006
H      49.047349999999994     49.918399999999998     45.001150000000003
H      49.033249999999995     50.173700000000004     47.702850000000005
H      47.190550000000002     49.280000000000001     50.815050000000006
H      46.147349999999989     46.914900000000003     49.414350000000006
H      48.951549999999997     49.635899999999999     49.118050000000004
H      47.592649999999992     49.730100000000000     46.890850000000007
H      45.365949999999998     47.938300000000005     50.998849999999997
H      50.442849999999979     47.061700000000002     45.359749999999998
H      47.911749999999998     45.801800000000000     49.549250000000008
H      49.096049999999991     45.003800000000005     45.394250000000007
H      47.806049999999999     44.498500000000000     47.390350000000005
