5

C      48.083249999999992     47.765149999999991     47.849449999999990
H      47.165649999999999     47.187750000000001     47.416849999999990
H      48.834350000000001     47.667249999999989     47.222749999999998
H      47.603650000000002     48.812249999999999     47.973849999999992
H      48.723749999999995     47.705449999999992     48.777250000000002
