19

C      50.305619999999990     46.648450000000004     48.194249999999990
C      49.381619999999998     45.979450000000000     48.959850000000003
C      50.116420000000005     48.022649999999999     47.589950000000002
C      48.147900000000007     46.610950000000003     49.157650000000004
C      48.671260000000004     48.732950000000002     47.637249999999995
C      47.900530000000003     47.781649999999999     48.397049999999993
C      48.284459999999996     49.919150000000002     47.113450000000000
C      46.527659999999997     48.178750000000008     48.469149999999999
C      46.879050000000007     50.144850000000005     47.067250000000001
C      45.991870000000006     49.419049999999999     47.873549999999994
H      51.108720000000005     46.445650000000001     47.818749999999994
H      49.434820000000002     44.967050000000000     49.109349999999992
H      50.732720000000000     48.304650000000009     46.707750000000004
H      50.729320000000001     48.602050000000006     48.295050000000003
H      47.116780000000006     46.165450000000007     49.393850000000000
H      48.867320000000007     50.679950000000005     46.606150000000000
H      45.919809999999998     47.247750000000011     48.753349999999998
H      46.400840000000002     51.032950000000000     46.609250000000003
H      44.891279999999995     49.957850000000008     47.890349999999998
