18

C      49.366550000000004     48.332908999999979     46.340689999999995
C      49.340049999999991     46.514710000000001     49.123800000000003
C      48.169249999999991     47.983809999999998     47.204747999999995
C      48.362650000000002     47.641809999999985     48.618309999999994
C      47.170850000000002     48.876206999999980     46.775589999999994
C      47.871750000000006     48.396826999999988     49.701819999999998
C      46.443349999999995     49.267339999999990     47.979129999999998
C      46.867450000000005     49.159519999999986     49.360870000000006
H      50.189350000000005     48.594872999999993     47.120784999999998
H      49.953850000000003     48.603826999999995     45.178789999999992
H      48.904849999999996     45.922210000000007     49.932569999999998
H      49.972549999999998     45.984209999999976     48.321559999999991
H      46.964849999999998     49.321809999999999     45.949289999999991
H      48.121650000000002     48.387292999999985     50.821210000000008
H      45.785750000000007     50.077789999999993     47.580834000000010
H      46.331950000000006     50.026599999999988     49.974530000000001
H      49.617549999999994     47.281410000000022     46.027989999999988
H      50.214249999999993     47.152610000000010     49.632480000000001
