9

C      48.596100000000000     48.524199999999986     47.463399999999993
C      48.067000000000007     47.503500000000003     48.472499999999997
C      47.135999999999996     46.745800000000003     48.234999999999999
H      48.039299999999997     49.677800000000005     47.459599999999995
H      48.272000000000006     48.325199999999995     46.375900000000001
H      49.694699999999997     48.523099999999999     47.336500000000001
H      46.305300000000003     46.322199999999995     48.885800000000003
H      48.144599999999997     47.955500000000001     49.624099999999999
H      46.416800000000002     47.275899999999993     47.585099999999997
