21

C      49.658949999999990     47.926449999999988     46.548759999999994
C      49.214150000000004     49.279650000000004     45.845829999999999
C      46.697050000000004     47.606650000000002     49.693230000000000
C      46.820850000000007     48.889650000000003     49.068629999999999
C      48.022950000000009     49.466949999999997     48.891829999999999
C      49.012850000000000     48.508150000000001     48.871530000000000
C      48.954050000000009     47.348150000000004     49.764629999999997
C      47.685450000000003     46.573049999999995     49.763930000000002
C      50.161249999999995     48.232450000000000     47.854830000000007
H      48.511150000000001     47.581649999999996     46.701329999999999
H      50.643150000000006     47.451850000000007     45.857860000000002
H      48.102850000000004     49.438050000000004     45.803169999999994
H      45.810150000000007     49.251050000000006     48.778329999999997
H      48.222450000000009     50.307050000000004     48.201030000000003
H      49.852050000000006     46.580349999999996     49.955430000000000
H      47.505549999999999     45.692949999999996     50.347729999999999
H      44.835250000000002     46.956150000000008     50.798929999999999
H      51.164749999999998     47.826250000000002     48.323729999999998
H      50.536249999999995     49.210350000000005     47.846629999999998
O      50.052850000000007     49.900649999999999     45.201070000000001
O      45.479150000000004     47.546750000000003     50.232630000000000
