100

C      52.086499999999994     52.730499999999999     50.558744999999995
C      51.326899999999995     53.218800000000002     51.757644999999997
C      53.117899999999992     48.442700000000002     52.371445000000008
C      53.058199999999999     49.093599999999995     53.624877000000012
C      52.513300000000001     51.384100000000004     50.367445000000004
C      51.099400000000003     52.423400000000001     52.933199000000009
C      52.393999999999998     49.122699999999995     51.300044999999997
C      52.038100000000000     50.147599999999997     53.877025000000017
C      52.070700000000002     50.574300000000008     51.456445000000002
C      51.765299999999996     51.111400000000003     52.747381600000011
C      52.414099999999991     53.787499999999994     49.672545000000000
C      52.113599999999991     55.181600000000003     50.067845000000005
C      51.305199999999999     55.546999999999997     51.052244999999999
C      51.063900000000004     54.661799999999999     52.119045000000000
C      53.306200000000004     51.157100000000000     49.166845000000009
C      53.157399999999996     53.585700000000003     48.491245000000006
C      50.559100000000001     53.269800000000004     53.926475000000011
C      50.360599999999998     54.598500000000001     53.367594000000011
C      52.440899999999999     48.445899999999995     50.086545000000001
C      53.744200000000006     52.257400000000004     48.324444999999997
C      49.202700000000000     46.384600000000006     49.805644999999998
C      50.047200000000004     47.614400000000003     50.259745000000009
C      51.192599999999999     46.940700000000007     45.755845000000008
C      49.059100000000001     46.062899999999999     48.422145000000000
C      51.198000000000000     48.027500000000003     49.427845000000005
C      50.248999999999995     46.021400000000000     46.181345000000007
C      51.673400000000001     47.785100000000000     46.893445000000000
C      49.989699999999999     46.623300000000000     47.546545000000009
C      50.819900000000004     47.605300000000000     48.085144999999997
C      48.168199999999999     45.865800000000007     50.683845000000005
C      47.882700000000000     46.823499999999996     51.763445000000004
C      48.710700000000003     47.890200000000007     52.086645000000004
C      49.613599999999998     48.434100000000001     51.252944999999997
C      46.349999999999994     44.696799999999996     51.768344999999997
C      46.355999999999995     45.513800000000003     53.042302000000007
C      46.755399999999995     46.722800000000007     52.873518000000018
C      44.886299999999999     44.471199999999996     51.234944999999996
C      43.438499999999998     42.572500000000005     50.133445000000009
C      42.480499999999999     42.459299999999999     51.313344999999998
C      49.316600000000001     45.012000000000000     45.661845000000000
C      44.697900000000004     43.262500000000003     50.696745000000007
C      47.939899999999994     43.667800000000000     49.525345000000002
C      45.925600000000003     42.381200000000007     50.707144999999997
C      47.319099999999999     42.535100000000000     50.316545000000005
C      45.948999999999998     40.954300000000003     50.958844999999997
C      48.197299999999998     41.332599999999999     50.456045000000003
C      46.640900000000002     39.805599999999998     50.483945000000006
C      47.960200000000000     39.941900000000004     50.174045000000007
C      49.967199999999998     44.052199999999999     44.384045000000000
C      50.013700000000000     43.013700000000000     41.705245000000005
C      49.846899999999998     42.790199999999999     44.427644999999998
C      49.786500000000004     42.290300000000002     43.093445000000003
C      49.868700000000004     42.033600000000000     45.618445000000008
C      49.303500000000000     40.927000000000000     42.935744999999997
C      49.479500000000002     40.730699999999999     45.414145000000005
C      49.319800000000001     40.156199999999998     44.075945000000004
H      53.474199999999996     47.489300000000000     52.194945000000004
H      53.709800000000001     48.551800000000000     54.328395000000000
H      52.471800000000002     55.912700000000001     49.410645000000002
H      53.727800000000002     50.147599999999997     49.066744999999997
H      50.426800000000000     53.067300000000003     54.980355000000003
H      49.750500000000002     55.328599999999994     53.813345000000012
H      52.474400000000003     50.310800000000000     54.932865000000007
H      53.509599999999992     54.312899999999999     47.776044999999996
H      54.495400000000004     51.899900000000002     47.621144999999999
H      51.286999999999999     47.470299999999995     44.839945000000000
H      48.303799999999995     45.508899999999997     48.161045000000001
H      52.987099999999998     47.548699999999997     49.689445000000006
H      52.594300000000004     48.261600000000001     47.003045000000000
H      50.041399999999996     49.421499999999995     51.450744999999998
H      46.455399999999997     47.596500000000006     53.554102000000015
H      42.974199999999996     43.078299999999999     49.320245000000000
H      43.158000000000001     42.028399999999998     52.149844999999999
H      41.504599999999996     42.244599999999998     51.079845000000006
H      41.994199999999999     43.533000000000001     51.851844999999997
H      49.261399999999995     40.167200000000001     46.453245000000010
H      48.141900000000000     45.508200000000002     45.559345000000008
H      50.222099999999998     44.040000000000006     42.036945000000003
H      45.759799999999998     44.045500000000004     53.899965000000009
H      48.287300000000002     48.504999999999995     52.839611000000019
H      46.710700000000003     43.761899999999997     52.188945000000004
H      43.726299999999995     41.573399999999999     49.638345000000001
H      47.509100000000004     43.635599999999997     48.652545000000003
H      48.832700000000003     43.958500000000001     49.018344999999997
H      44.957499999999996     40.551700000000004     51.182045000000002
H      49.187600000000003     41.632800000000003     50.170744999999997
H      46.345399999999998     38.783900000000003     50.549845000000005
H      48.681399999999996     39.084000000000003     50.005445000000009
H      51.223299999999995     57.216099999999997     50.371144999999999
H      48.581099999999999     44.563000000000002     46.410044999999997
H      50.336900000000000     44.547399999999996     43.578645000000009
H      49.014099999999999     43.055700000000002     41.019644999999997
H      50.899699999999996     42.518400000000000     41.175745000000006
H      50.322599999999994     42.246000000000002     46.656345000000002
H      48.930999999999997     40.545800000000000     41.846744999999999
H      48.983300000000000     39.199400000000004     43.725745000000003
N      47.542299999999997     44.802900000000008     50.511544999999998
O      50.865499999999997     56.831500000000005     51.173845000000000
O      43.898499999999999     45.193100000000001     51.311545000000010
O      45.489300000000000     45.034800000000004     54.129665000000003
