5

C      48.077249999999992     47.652349999999991     47.782199999999989
H      48.596349999999994     47.543250000000000     49.002800000000008
H      48.747250000000001     47.239249999999998     46.997199999999992
H      48.065649999999998     48.760750000000002     47.730300000000000
H      47.252749999999999     47.546949999999995     47.351699999999994
