6

C      48.170699999999989     48.318099999999994     47.685199999999995
C      48.062700000000000     47.350800000000000     48.607599999999998
H      47.038100000000000     47.141999999999996     48.959499999999998
H      48.961900000000000     48.737499999999997     47.040500000000002
H      47.316599999999994     49.172100000000000     47.764900000000004
H      48.861699999999999     46.827900000000000     48.813900000000011
