6

C      48.554999999999993     47.787049999999994     48.545138999999992
C      47.693299999999994     48.317250000000008     47.612479999999991
H      48.747999999999990     48.339050000000007     49.429419999999993
H      49.338099999999997     47.212849999999996     48.186700000000002
H      46.661900000000003     48.787150000000004     47.857079999999996
H      47.850999999999999     48.350850000000001     46.570580000000007
