47

C      47.809999999999995     52.445049999999995     45.034644499999992
C      47.592500000000001     47.395249999999997     48.496114500000004
C      48.371499999999997     47.326650000000008     47.377774500000001
C      48.326900000000002     51.223450000000007     45.837234500000001
C      46.655200000000001     48.321750000000002     48.997604499999994
C      48.307199999999995     48.500750000000004     46.506974499999998
C      45.423000000000002     50.523950000000006     48.640804500000002
C      47.244300000000003     50.883950000000006     46.560624500000003
C      46.533300000000004     49.497650000000000     48.128924499999997
C      47.305600000000005     49.504950000000001     47.039624500000002
C      47.922800000000009     46.173650000000002     49.642384499999999
C      49.034300000000002     45.330550000000009     49.472234499999999
C      49.695599999999999     45.217450000000007     48.101474499999995
C      49.220200000000006     46.083750000000002     47.113574499999999
C      47.258200000000002     46.142550000000007     50.860684499999991
C      47.748500000000000     45.203049999999998     51.812834500000001
C      49.470100000000002     44.516950000000001     50.609954500000001
C      46.265600000000006     48.365650000000009     50.507964500000000
C      46.346400000000003     47.155850000000008     51.432194500000001
C      49.337900000000005     45.705950000000009     45.750854500000003
C      50.482100000000003     44.710550000000005     45.277094500000004
C      50.802000000000007     45.183850000000000     43.897884500000004
C      50.302400000000006     43.476050000000008     50.478324499999999
H      50.148700000000005     42.800249999999998     51.372274500000003
H      47.691400000000002     52.500450000000008     43.844494500000003
H      47.334600000000002     53.199750000000002     45.784854500000002
H      48.683300000000003     52.930150000000005     44.794984499999998
H      44.557800000000000     50.573250000000009     47.960384500000004
H      45.715900000000005     51.656750000000009     48.909454500000002
H      49.365600000000001     50.804650000000002     45.741904500000004
H      49.164200000000001     49.101850000000006     46.059764500000000
H      44.677500000000002     50.022150000000003     49.461844499999998
H      46.300500000000007     51.522050000000000     46.271144500000005
H      50.492200000000004     44.626350000000009     47.961514500000007
H      47.105400000000003     45.361950000000000     52.843004499999999
H      46.833600000000004     49.193750000000001     51.077794500000003
H      45.175900000000006     48.760849999999998     50.635044500000006
H      46.630900000000004     47.277350000000006     52.476504500000004
H      45.203500000000005     46.828049999999998     51.640404500000002
H      51.442200000000000     44.448749999999997     45.958764500000001
H      49.777400000000000     43.823950000000004     45.468574500000003
H      49.711500000000001     45.557850000000009     43.245504500000003
H      51.035600000000002     46.273249999999997     43.874704500000000
H      51.086399999999998     44.385950000000001     43.156995500000001
H      50.740000000000002     43.084750000000007     49.656934500000006
N      48.769400000000005     44.453350000000007     51.805964500000002
O      48.504500000000007     45.825250000000004     44.904914500000004
