22

C      50.152754999999978     47.998949999999994     47.167849999999994
C      49.094854999999988     47.122950000000003     46.407150000000001
C      49.834294999999990     48.423349999999999     48.405149999999992
C      47.666777999999987     50.052450000000000     47.907649999999990
C      48.505694999999989     48.061850000000000     49.058449999999993
C      47.473334299999991     48.809150000000010     48.570349999999991
C      48.326531999999986     46.801850000000002     49.817250000000001
C      46.100605000000002     48.540950000000002     48.951749999999990
C      46.980505000000008     46.241549999999997     49.730049999999991
C      45.926504999999999     47.137350000000005     49.504849999999990
H      51.056794999999987     48.512350000000005     46.639349999999993
H      48.218304999999987     47.298949999999998     47.003050000000002
H      49.209104999999987     46.122650000000000     46.341249999999988
H      50.424264999999991     49.280949999999997     48.812349999999995
H      46.878804999999979     49.948749999999997     46.761349999999993
H      47.151004999999977     50.889749999999999     48.283549999999991
H      48.706024999999990     50.079349999999998     47.456449999999990
H      48.926204999999989     46.780750000000005     50.807749999999999
H      45.131504999999976     49.078449999999997     48.709949999999992
H      46.787405000000014     45.110250000000001     50.075949999999992
H      44.943205000000013     46.903050000000000     49.109549999999999
H      48.517744999999991     47.692349999999998     45.192250000000001
