24

C      50.974699999999991     47.165099999999995     48.353449999999988
C      51.098500000000001     48.205000000000005     47.460549999999998
C      48.542800000000000     46.519100000000002     49.379049999999992
C      49.975899999999996     46.081600000000002     48.762349999999998
C      48.500100000000003     49.987400000000001     48.115649999999995
C      47.689499999999995     47.346700000000006     48.696150000000003
C      47.622399999999999     49.263000000000005     47.214149999999997
C      46.874600000000001     48.179000000000009     47.870750000000001
C      46.757700000000000     50.066200000000002     46.381649999999993
C      45.608000000000004     47.754600000000003     47.223349999999996
C      45.388099999999994     49.822499999999998     46.141049999999993
C      44.825199999999995     48.473400000000005     46.323049999999995
H      49.695700000000002     45.296400000000006     47.815950000000001
H      51.884900000000002     46.605000000000004     48.799250000000001
H      52.131399999999999     48.675300000000000     47.587249999999997
H      50.429000000000002     48.322099999999999     46.685549999999992
H      48.245999999999995     46.181900000000006     50.465850000000003
H      50.332099999999997     45.117500000000000     49.275549999999996
H      48.813299999999998     50.877200000000009     47.588650000000001
H      49.265000000000001     49.794700000000006     48.777050000000003
H      47.155699999999996     50.882500000000000     46.011849999999995
H      45.351399999999998     46.761000000000003     47.473450000000000
H      44.694000000000003     50.740200000000009     45.534149999999997
H      43.868600000000001     48.287500000000001     45.958149999999996
