16

C      46.112799999999993     47.385084999999989     48.625699999999995
C      48.471300000000006     46.977584999999998     50.262499999999996
C      47.372300000000003     47.653825000000005     48.209600000000002
C      48.506300000000003     47.283205000000002     48.941499999999998
C      47.563099999999999     48.472315000000002     46.951299999999996
C      49.649300000000004     47.485085000000005     48.060700000000004
C      48.667999999999999     48.560454999999997     46.114899999999999
C      49.856400000000001     48.155705000000005     46.844200000000001
H      45.209200000000003     47.612214999999999     48.221100000000000
H      45.869400000000006     46.936205000000001     49.640899999999995
H      47.492399999999996     46.903945000000000     50.770400000000002
H      49.350500000000004     46.880665000000000     50.938899999999997
H      46.657400000000003     49.119335000000000     46.381999999999998
H      50.527999999999999     47.310674999999996     48.753700000000002
H      48.557200000000002     49.012005000000002     45.061100000000003
H      50.790799999999997     48.373224999999998     46.532299999999999
