63

C      46.893049999999988     46.639899999999997     48.011600000000001
C      46.580549999999995     47.088700000000003     46.746499999999997
C      50.170749999999991     50.415199999999999     48.504199999999997
C      49.547049999999992     51.089799999999997     47.427500000000009
C      47.822649999999989     47.392399999999995     48.951400000000007
C      47.174549999999989     48.295100000000005     46.140299999999996
C      49.501249999999992     49.279399999999995     49.088999999999999
C      48.489449999999998     50.423800000000000     46.652200000000008
C      48.509449999999994     48.510300000000001     48.393299999999996
C      48.085349999999998     48.988799999999998     46.965299999999999
C      46.514350000000000     45.402500000000003     48.643000000000001
C      45.721849999999996     44.334999999999994     47.901899999999998
C      45.723449999999993     44.659499999999994     46.486199999999997
C      45.974749999999993     45.922600000000003     45.997900000000001
C      51.180050000000001     51.030199999999994     49.435200000000009
C      51.724550000000001     52.222899999999996     48.992400000000004
C      51.380249999999997     52.787099999999995     47.678500000000000
C      50.133350000000000     52.383499999999998     47.105500000000006
C      47.131349999999991     45.086399999999998     49.946300000000008
C      46.410750000000000     44.048599999999993     50.717200000000005
C      45.562549999999995     43.177399999999992     50.046599999999998
C      45.190249999999999     43.394000000000005     48.739800000000002
C      47.354149999999997     47.185699999999997     50.337000000000003
C      48.170849999999994     45.794399999999996     50.768900000000002
C      46.671949999999988     48.437600000000003     44.706900000000005
C      45.759849999999993     47.587199999999996     44.039299999999997
C      45.818149999999996     46.095500000000001     44.492199999999997
C      50.283449999999995     48.406099999999995     50.176500000000004
C      50.675750000000001     49.462400000000002     51.306600000000003
C      51.802050000000001     50.471500000000006     50.722300000000004
C      51.493949999999991     48.698699999999988     52.339000000000013
C      49.769449999999999     53.001199999999997     45.759500000000003
C      44.108849999999997     42.667400000000001     48.160699999999991
H      48.863449999999993     50.753499999999988     45.742000000000004
H      44.982149999999997     43.708100000000002     46.062600000000003
H      52.808149999999991     52.467999999999989     49.346600000000009
H      52.124149999999993     53.361400000000003     47.162000000000006
H      46.595149999999997     44.002799999999993     51.872199999999992
H      44.983749999999993     42.497699999999995     50.692500000000010
H      46.038949999999993     47.200400000000002     50.080900000000000
H      47.735650000000000     47.951999999999998     50.894599999999997
H      49.255449999999989     45.782100000000000     50.367900000000006
H      48.054549999999999     45.635599999999997     51.869599999999991
H      46.162549999999989     49.557799999999986     44.528999999999996
H      47.716649999999994     48.558899999999994     44.031599999999997
H      44.845250000000000     48.203900000000004     43.986000000000004
H      45.988749999999989     47.931500000000000     42.988399999999999
H      46.742049999999999     45.421700000000001     43.934399999999997
H      45.042649999999988     45.415400000000005     44.280600000000007
H      49.794549999999994     47.622199999999992     50.758200000000002
H      51.106049999999989     47.840800000000002     49.567300000000003
H      49.394349999999996     49.918699999999987     51.793400000000005
H      52.836250000000000     50.353099999999998     50.390600000000006
H      51.581550000000000     51.311199999999999     51.382799999999989
H      52.445850000000000     48.331399999999988     51.578400000000002
H      51.894649999999992     49.507099999999994     53.011600000000001
H      50.971649999999990     47.741699999999994     52.913799999999995
H      49.551049999999996     54.192899999999995     45.885500000000008
H      50.541149999999995     52.399100000000004     45.132900000000006
H      43.789749999999991     41.873899999999992     48.836600000000004
H      44.465550000000000     41.807100000000005     47.539299999999997
H      43.163750000000000     43.337699999999998     47.756600000000006
H      48.768249999999988     52.621300000000005     45.504800000000003
