20

C      48.719199999999994     47.154740999999987     49.153149999999989
C      47.485300000000002     46.272129999999997     46.685149999999993
C      47.374200000000002     47.789783999999990     48.959849999999996
C      46.784900000000000     47.154858900000001     47.725250000000003
C      47.100499999999997     49.151829999999997     49.399149999999999
C      45.815700000000000     48.123968999999995     47.199550000000002
C      46.533799999999999     50.083929999999995     48.388649999999998
C      45.838000000000001     49.551439999999992     47.350049999999996
C      49.789800000000000     47.601353999999994     49.925150000000002
H      49.230699999999999     46.152930000000005     48.981650000000002
H      48.104799999999997     47.058729999999997     46.405050000000003
H      46.621099999999998     45.775730000000017     45.718350000000001
H      47.874499999999998     49.733449999999991     49.991349999999997
H      45.239599999999996     47.697642999999992     46.534949999999995
H      46.649900000000002     51.211069999999999     48.486049999999999
H      45.315700000000000     50.172219999999989     46.474549999999994
H      49.421199999999999     44.989229999999999     46.266049999999993
H      50.760400000000004     46.849230000000013     49.831249999999997
H      49.938500000000005     48.574049999999993     50.281649999999999
S      48.385999999999996     44.788930000000001     47.116249999999994
