23

C      48.293949999999995     49.393849999999993     45.181679999999986
C      47.938450000000003     49.311350000000004     46.481099999999998
C      46.385149999999996     47.330950000000001     49.566940000000002
C      47.845550000000003     47.820349999999991     46.924139999999994
C      47.843949999999992     47.065249999999992     49.484840000000005
C      48.488950000000003     47.688850000000002     48.332840000000004
C      48.751449999999991     46.698250000000002     50.441839999999999
C      49.885349999999988     47.618049999999997     48.115639999999999
C      50.181150000000002     46.590649999999997     50.313540000000003
C      50.617149999999995     46.933250000000001     49.040440000000004
C      45.220450000000000     46.803349999999995     49.373339999999999
H      48.299249999999986     48.462949999999992     44.475859999999997
H      48.590350000000001     50.336449999999999     44.834130000000002
H      46.715750000000000     47.468750000000000     46.978539999999995
H      47.342550000000003     50.229050000000001     46.964939999999999
H      44.276449999999997     47.529449999999997     49.282539999999997
H      46.068150000000003     48.271249999999995     50.136640000000000
H      48.291349999999994     47.046149999999997     46.307580000000002
H      48.124150000000000     46.490650000000002     51.524140000000003
H      50.242349999999988     47.949349999999995     47.270440000000008
H      50.944749999999985     46.127749999999992     51.077740000000006
H      51.723550000000003     46.701349999999991     48.813440000000000
H      44.898449999999997     45.663550000000001     49.276340000000005
