22

C      47.414899999999989     46.457349999999998     49.974449999999990
C      45.854399999999998     46.748940000000005     50.144849999999998
C      49.274799999999999     45.785920000000004     46.274650000000001
C      48.266300000000001     47.118560000000002     49.360350000000004
C      49.566199999999995     47.155940000000001     46.970149999999997
C      48.630099999999999     47.677570000000003     47.924349999999997
C      50.181100000000001     47.903050000000007     45.913950000000007
C      48.495099999999994     49.121360000000010     47.944250000000004
C      49.860699999999994     49.300770000000000     45.767550000000007
C      49.017899999999997     49.697830000000003     46.785550000000008
H      50.403400000000005     45.452480000000001     46.359749999999998
H      49.044400000000010     46.018580000000000     45.303450000000005
H      47.544200000000004     45.352470000000004     50.122850000000007
H      45.296999999999997     46.454670000000007     51.202949999999994
H      45.389700000000005     46.095040000000004     49.458549999999995
H      48.430700000000002     45.119720000000001     46.772050000000000
H      49.250199999999992     47.218790000000006     49.660350000000001
H      45.672600000000003     47.765250000000002     50.230849999999997
H      50.703000000000003     47.460960000000000     45.093150000000001
H      48.096500000000006     49.549030000000002     48.849350000000008
H      50.120899999999992     49.810780000000001     44.797050000000006
H      48.927500000000009     50.880279999999999     46.991650000000000
