6

C      47.591949999999983     48.033649999999994     48.403799999999997
C      48.406950000000009     47.603449999999995     47.576899999999995
H      46.578649999999996     47.743449999999996     48.309600000000003
H      47.844949999999997     48.532950000000000     49.448599999999999
H      47.981350000000006     47.467050000000000     46.551400000000001
H      49.421350000000004     47.533850000000001     47.927800000000005
