16

C      45.806500000000000     48.953449999999989     47.972549999999984
C      46.524600000000000     46.626550000000002     49.182749999999999
C      47.012800000000006     48.793349999999997     47.948949999999996
C      47.498200000000004     47.555650000000000     48.640749999999997
C      47.903799999999997     49.425549999999994     47.047049999999999
C      48.913699999999999     47.148549999999993     48.313649999999996
C      49.227899999999998     49.145149999999994     47.002349999999993
C      49.733100000000000     47.962550000000000     47.701650000000001
H      45.121000000000002     49.809949999999994     47.472549999999998
H      45.508400000000002     47.848849999999999     47.718949999999992
H      45.412600000000005     46.680650000000000     49.067650000000000
H      46.805900000000001     45.800649999999997     49.725049999999996
H      47.741500000000009     50.199350000000003     46.274950000000004
H      49.610000000000007     46.361550000000001     48.890050000000002
H      50.046799999999998     49.707949999999997     46.337450000000004
H      50.878999999999998     47.718950000000000     47.686349999999990
