6

C      47.393649999999987     47.947949999999992     48.152549999999998
C      48.617649999999998     48.072749999999992     47.942149999999998
H      46.853250000000003     47.163249999999998     49.005049999999997
H      46.776250000000005     48.210149999999992     47.317650000000000
H      49.223749999999995     48.011149999999994     48.808350000000004
H      48.895749999999992     48.836750000000002     46.994950000000003
