14

C      46.961149999999989     49.848699999999994     47.308299999999988
C      46.744349999999997     48.205100000000009     49.865100000000005
C      47.518749999999997     48.530200000000001     47.313400000000009
C      47.469350000000006     47.726500000000009     48.683600000000006
C      48.260950000000008     46.502000000000002     48.479999999999997
C      48.216450000000009     47.675599999999996     46.464900000000000
C      48.767150000000001     46.621900000000004     47.147799999999997
H      46.844149999999999     50.259499999999996     46.351100000000002
H      46.503050000000002     50.292300000000004     48.136699999999998
H      46.719549999999998     49.091600000000007     50.358699999999992
H      46.811250000000001     47.539200000000001     50.740600000000001
H      48.397950000000009     45.707699999999996     49.350900000000003
H      48.230450000000005     47.775600000000004     45.259399999999999
H      49.496949999999998     45.879100000000001     46.997500000000002
