22

C      46.855199999999982     47.571298999999996     45.852099999999993
C      48.280600000000007     47.921852000000008     45.461499999999994
C      46.276100000000000     48.555569999999996     47.008299999999998
C      49.427300000000002     48.459009999999999     46.365199999999994
C      47.419600000000003     48.308485000000012     48.004600000000003
C      48.771200000000007     48.139891999999996     47.661399999999993
C      47.005800000000008     48.147312000000007     49.351199999999999
C      49.800700000000006     47.692028000000001     48.565099999999994
C      47.897800000000004     47.694121000000003     50.293100000000003
C      49.285800000000009     47.439754499999999     49.907099999999993
H      46.152900000000002     47.908374000000002     45.211400000000005
H      46.646700000000010     46.465529999999994     45.926899999999996
H      48.160600000000002     48.457880000000003     44.597299999999997
H      48.620199999999997     46.877430000000004     45.111100000000000
H      45.973900000000000     49.530060000000006     46.851700000000001
H      45.313299999999998     48.399530000000006     47.698500000000003
H      49.485200000000006     49.534470000000006     45.657099999999993
H      50.303200000000004     47.919004000000001     46.133299999999998
H      46.018299999999996     48.435130000000008     49.544900000000005
H      50.686700000000002     47.411438600000004     48.380599999999994
H      47.508400000000009     47.754898000000004     51.402700000000003
H      50.011499999999998     47.500009000000006     50.777200000000001
