8

C      48.575449999999989     48.160749999999993     47.473044999999999
C      47.610349999999997     47.809550000000002     48.632514999999998
H      49.102550000000001     49.220250000000000     47.375995000000003
H      49.271549999999998     47.322150000000001     47.581364999999991
H      48.284750000000003     47.801650000000002     49.586164999999994
H      46.728450000000002     48.547249999999998     48.825734999999995
H      48.338349999999998     48.280149999999999     46.413835000000006
H      47.803350000000002     46.779750000000000     48.517584999999997
