21

C      50.378599999999992     48.267749999999992     46.981249999999989
C      47.824999999999996     46.421450000000000     45.874150000000000
C      49.210900000000002     49.180749999999996     47.307950000000005
C      47.544099999999993     47.767149999999994     45.691850000000002
C      48.070799999999998     48.626250000000006     47.982550000000003
C      47.008699999999997     47.979850000000006     47.150949999999995
C      48.216799999999999     48.303949999999993     49.284050000000008
C      45.707400000000000     48.006750000000004     47.691350000000000
C      47.036099999999998     47.825049999999997     49.996849999999995
C      45.948000000000000     48.223549999999996     49.139350000000007
H      49.192599999999992     50.268049999999995     46.836449999999999
H      51.092700000000001     47.742349999999995     46.099249999999998
H      50.507399999999997     47.400250000000007     47.673850000000002
H      48.325600000000001     45.731950000000005     45.181849999999997
H      47.673899999999996     46.055649999999993     46.839150000000004
H      51.138799999999996     49.220549999999996     46.759550000000004
H      47.671199999999992     48.405250000000002     44.903949999999995
H      48.986699999999992     48.701249999999995     50.035350000000008
H      44.861200000000004     48.024049999999995     46.920050000000003
H      46.975099999999991     47.960349999999998     51.096050000000005
H      44.895899999999990     48.032450000000004     49.375250000000008
