61

C      47.023670000000003     46.172599999999989     51.130099999999992
C      50.550920000000012     47.543900000000001     41.506599999999999
C      46.741370000000003     47.537199999999999     51.043500000000002
C      50.749520000000004     46.510200000000005     42.484499999999997
C      47.541970000000006     45.360999999999997     50.010800000000003
C      49.632169000000005     48.627900000000004     41.639899999999997
C      47.308970000000002     48.430100000000003     50.001700000000000
C      50.099565000000013     46.558000000000000     43.740400000000001
C      48.914470000000009     45.822299999999998     48.039000000000001
C      48.198369999999997     50.406999999999989     46.046599999999998
C      47.834270000000004     49.722299999999997     47.329400000000000
C      49.696131000000008     46.464900000000000     47.046999999999997
C      48.254270000000005     49.764699999999998     43.377800000000001
C      47.955170000000010     46.294999999999995     48.968800000000002
C      49.094470000000001     48.648999999999994     42.979500000000002
C      48.384470000000007     49.654699999999998     44.830500000000001
C      47.952669999999998     47.756299999999989     48.902699999999996
C      49.363346500000006     47.688399999999994     44.080399999999997
C      48.292670000000001     48.392900000000004     47.597000000000001
C      49.163170000000008     47.862599999999993     46.568100000000001
C      49.076570000000004     48.370899999999999     45.238799999999998
C      46.763570000000001     49.739099999999986     49.649500000000003
C      47.340069999999997     50.461999999999996     48.447800000000001
C      46.610970000000009     45.365299999999998     52.345700000000001
C      46.013570000000001     46.169100000000000     53.336200000000005
C      45.847870000000000     47.631599999999999     53.464500000000001
C      46.274070000000009     48.164799999999993     52.256100000000004
C      45.908969999999997     49.588500000000003     51.935100000000006
C      46.479470000000006     50.426599999999993     50.858199999999997
C      47.490970000000004     43.417299999999997     51.022100000000002
C      47.118470000000002     43.887899999999995     52.420500000000004
C      48.495170000000002     51.905099999999997     45.884500000000003
C      47.267570000000006     52.665199999999992     46.736499999999999
C      47.217370000000003     51.746699999999997     47.970100000000002
C      45.230069999999998     48.509700000000002     54.510700000000000
C      44.947870000000009     49.786300000000004     54.143000000000001
C      45.180570000000003     50.315799999999989     52.889200000000002
C      47.441670000000002     51.539499999999997     51.085999999999999
H      46.939270000000008     52.680399999999999     48.470700000000001
H      49.430130000000005     49.174799999999998     40.588900000000002
H      50.716170000000005     47.510299999999994     40.433599999999998
H      51.086730000000003     45.334499999999998     42.360300000000002
H      50.634350000000012     45.725699999999996     44.320599999999999
H      48.801169999999999     44.670599999999993     48.132400000000004
H      50.406620000000004     45.767199999999995     46.492800000000003
H      47.824170000000009     50.513200000000005     42.713300000000004
H      45.343670000000003     45.586399999999998     54.061099999999996
H      46.335570000000004     43.123099999999994     52.623100000000001
H      47.845170000000010     42.473599999999998     51.090299999999999
H      47.952970000000008     44.115599999999993     53.109499999999997
H      49.570761000000019     52.123899999999999     46.275900000000000
H      48.142570000000006     52.339599999999997     44.942700000000002
H      46.460070000000002     52.462499999999999     46.033400000000000
H      47.827370000000002     53.526400000000002     47.087000000000003
H      48.201970000000003     51.085699999999996     51.809799999999996
H      46.627170000000007     52.439699999999995     51.839799999999997
H      45.706069999999997     48.563399999999994     55.566400000000002
H      44.929470000000009     50.629299999999994     54.908299999999997
H      44.913269999999997     51.200300000000006     52.594200000000001
H      47.847369999999998     51.898499999999999     50.163300000000000
N      47.872870000000006     44.118699999999997     49.972300000000004
