6

C      48.073349999999998     47.847899999999996     48.407699999999991
H      46.903649999999999     47.374499999999998     46.820999999999998
H      49.096350000000001     47.251999999999995     48.619500000000002
H      47.230649999999997     47.534800000000004     49.179000000000002
H      48.199050000000000     48.813699999999997     47.897099999999995
O      47.721149999999994     47.186300000000003     47.245599999999996
