34

C      46.487999999999992     45.038399999999989     51.106049999999996
C      48.758300000000006     50.903700000000001     50.847850000000001
C      47.555199999999999     45.239800000000002     50.572949999999999
C      47.898299999999992     50.247799999999998     51.488350000000004
C      48.706699999999998     44.616000000000000     50.509549999999997
C      47.514200000000002     49.049499999999995     50.817050000000002
C      47.476199999999999     46.631699999999995     49.689850000000000
C      47.303600000000003     47.958399999999997     50.272650000000006
C      46.814300000000003     49.078599999999994     47.919350000000001
C      49.443799999999996     44.868600000000001     49.189249999999994
C      48.003000000000000     48.905000000000001     47.261649999999996
C      48.986400000000003     46.392700000000005     48.839649999999999
C      48.541799999999995     47.579499999999996     46.635250000000006
C      48.713799999999992     46.324700000000007     47.379950000000001
C      48.592100000000002     47.604100000000003     45.297249999999998
C      48.334099999999999     45.184200000000004     46.615450000000003
C      48.764499999999998     46.357799999999997     44.686550000000004
C      48.165700000000001     45.124099999999999     45.245250000000006
H      45.448499999999996     45.310699999999997     50.978349999999999
H      49.250399999999999     50.626099999999994     49.917049999999996
H      48.673600000000008     52.034800000000004     50.668250000000008
H      48.952600000000004     43.965199999999996     51.317349999999998
H      47.169600000000003     50.784800000000004     52.300450000000005
H      46.659399999999998     46.541799999999995     48.889950000000006
H      46.734499999999997     50.112399999999994     48.567950000000003
H      45.830500000000001     48.503100000000003     47.780149999999999
H      50.551500000000004     44.967699999999994     49.640449999999994
H      48.692200000000000     49.469700000000003     47.733849999999997
H      49.029600000000002     44.186099999999996     48.378850000000007
H      49.560199999999995     47.378000000000000     48.933349999999997
H      48.542199999999994     48.472800000000007     44.634949999999996
H      48.001500000000000     44.135999999999996     47.189450000000001
H      49.095399999999998     46.515200000000007     43.699549999999995
H      47.816199999999995     44.284300000000002     44.683950000000003
