6

C      47.741698999999997     47.387699999999995     47.648699999999991
C      48.089185999999998     48.205500000000001     48.640599999999999
H      48.555509999999998     46.614300000000000     47.361700000000006
H      47.054550000000006     47.447400000000002     46.760799999999996
H      47.783618000000004     49.385700000000000     49.013399999999997
H      48.945449999999994     48.116500000000002     49.239200000000004
