35

C      48.216299999999990     47.793799999999990     48.146199999999993
C      48.299400000000006     48.779399999999995     49.171700000000008
C      44.166600000000003     49.924499999999995     47.168200000000006
C      47.186099999999996     47.705100000000002     47.217999999999996
C      47.106300000000005     49.489400000000003     49.409300000000009
C      44.850499999999997     48.768900000000002     46.584400000000009
C      44.704400000000007     50.304599999999994     48.475800000000000
C      45.994100000000003     48.615099999999998     47.445299999999996
C      45.974100000000007     49.446500000000000     48.607599999999998
C      49.296900000000008     46.772499999999994     48.505100000000006
C      50.146900000000002     46.715900000000005     49.757600000000004
C      49.905900000000003     47.683800000000005     50.820799999999998
C      49.535499999999999     49.005900000000011     50.165100000000002
C      49.510199999999998     45.656099999999995     47.649900000000009
C      50.200699999999998     44.435400000000001     47.756099999999996
C      51.185200000000009     44.570800000000006     48.718200000000003
C      51.119900000000001     45.685599999999994     49.538500000000006
C      46.968600000000009     46.569299999999998     46.481699999999996
C      44.269199999999998     51.598200000000006     49.087800000000009
C      45.006399999999999     48.215000000000003     45.220599999999997
H      50.235200000000006     49.465500000000006     49.313700000000004
H      43.654899999999998     50.785600000000002     46.665200000000006
H      47.531199999999998     50.332200000000000     49.864100000000001
H      50.800800000000010     47.542299999999997     51.444600000000001
H      49.714600000000004     49.878900000000002     50.722600000000007
H      48.554299999999998     45.500100000000003     46.928500000000007
H      50.409000000000006     43.629499999999993     47.063600000000001
H      52.345100000000002     43.864599999999996     48.725800000000000
H      51.963500000000010     46.130200000000002     50.234600000000007
H      43.901600000000002     52.370500000000007     48.314000000000000
H      44.147000000000006     48.090400000000002     44.587300000000006
H      45.417800000000000     47.093299999999999     45.116700000000002
H      45.185100000000006     49.250699999999995     44.555399999999999
O      46.758700000000005     45.590299999999999     45.860599999999998
O      44.756699999999995     52.085800000000006     50.056699999999999
