6

C      48.627949999999998     47.618879999999997     48.094899999999996
C      47.561949999999996     48.451390000000004     48.015099999999997
H      48.725149999999999     46.719600000000000     47.399999999999999
H      49.330749999999995     47.983139999999992     48.757200000000005
H      46.669250000000005     48.369850000000000     47.242799999999995
H      47.314549999999997     49.280400000000000     48.620100000000001
