17

C      46.750899999999987     49.405949999999990     47.544349999999994
C      48.229100000000003     49.479549999999989     50.351350000000004
C      47.923200000000008     48.479549999999989     47.722250000000010
C      48.507800000000003     48.639949999999999     49.033850000000008
C      48.670000000000002     47.836549999999988     46.752950000000006
C      49.413200000000003     47.609949999999998     49.351350000000004
C      49.383200000000002     46.710749999999990     47.107450000000007
C      49.861800000000002     46.630749999999992     48.468950000000000
H      46.278000000000006     49.297749999999994     46.616149999999998
H      45.734899999999996     49.044249999999991     48.258550000000007
H      47.051800000000000     50.534649999999999     47.748950000000001
H      48.945899999999995     50.320949999999996     50.533549999999998
H      48.807100000000005     48.123849999999990     45.466450000000002
H      49.727500000000006     47.050950000000000     50.430749999999996
H      49.618300000000005     45.816049999999990     46.463650000000008
H      50.265100000000004     45.465350000000001     48.799250000000008
S      46.642600000000002     49.997850000000000     50.461350000000003
