20

C      48.739299999999986     50.022349999999996     48.587049999999991
C      46.763800000000003     48.414349999999999     50.267350000000000
C      49.364600000000010     49.038449999999997     48.286949999999997
C      47.701599999999999     47.442650000000000     49.968750000000007
C      48.370400000000004     48.066049999999997     47.640850000000000
C      47.606899999999996     47.137050000000002     48.486049999999999
C      48.041700000000006     48.067650000000000     46.263449999999999
C      47.091600000000000     45.874450000000003     48.131749999999997
C      47.185900000000004     47.046450000000000     45.933650000000000
C      46.772099999999995     46.044649999999997     46.827750000000002
H      47.999799999999993     49.796849999999999     49.367650000000005
H      49.201200000000000     50.890749999999997     49.039650000000002
H      46.683899999999994     49.253349999999998     51.068950000000001
H      50.170900000000003     49.567650000000000     47.666350000000001
H      48.532200000000003     47.365850000000002     50.619149999999998
H      46.161699999999996     48.222349999999999     49.162949999999995
H      48.509500000000003     48.623550000000002     45.614350000000002
H      46.616600000000005     45.109250000000003     48.878050000000002
H      46.541799999999995     46.955350000000003     44.931049999999999
H      45.829099999999997     45.489649999999997     46.497650000000000
