6

C      48.098394999999989     48.481899999999996     47.590899999999991
C      48.425905000000000     47.465000000000003     48.460999999999999
H      47.534295000000000     48.234700000000004     46.467900000000000
H      48.049364999999995     49.560200000000002     47.743999999999993
H      48.238014999999997     47.757800000000003     49.532100000000000
H      48.465705000000000     46.439799999999998     48.077500000000008
