22

C      47.175849999999997     49.097949999999997     46.563249999999996
C      45.832449999999994     48.755750000000006     46.511949999999999
C      47.703849999999989     49.939350000000005     47.782450000000004
C      50.491450000000000     48.864350000000002     48.293450000000000
C      47.931749999999994     48.801050000000004     48.749850000000002
C      49.145150000000001     48.101750000000010     48.709850000000003
C      46.848749999999995     48.204450000000008     49.394849999999998
C      49.266049999999993     46.795650000000009     49.115749999999998
C      47.195149999999998     47.109650000000002     50.246150000000007
C      48.165549999999996     46.135950000000008     49.704649999999994
H      47.318649999999991     49.323550000000012     45.453749999999999
H      44.943150000000003     49.002050000000011     47.256450000000008
H      45.757149999999996     48.311950000000010     45.607750000000003
H      50.973450000000000     48.532250000000005     47.296450000000000
H      46.733850000000004     50.519750000000002     48.246850000000002
H      51.056849999999997     47.934049999999999     48.674150000000004
H      50.379249999999999     49.984550000000013     48.673749999999998
H      45.744150000000005     48.666150000000002     49.451349999999998
H      50.206750000000000     46.280850000000001     48.897449999999999
H      46.277149999999992     46.469949999999997     50.546250000000001
H      48.577149999999989     45.480249999999998     50.451550000000005
H      48.638549999999995     50.331350000000015     47.351450000000007
