6

C      48.292514999999995     47.904899999999991     47.285949999999993
C      47.808214999999997     48.065999999999995     48.606849999999994
H      49.343415000000000     47.616299999999995     47.105149999999995
H      47.740015000000000     48.383700000000005     46.483649999999997
H      46.656585000000000     48.162700000000001     48.800449999999998
H      48.316414999999999     47.623399999999997     49.516350000000003
