53

C      47.500899999999987     47.367149999999995     48.020999999999994
C      46.874599999999994     46.913650000000004     46.773699999999998
C      50.777399999999993     47.380849999999995     44.515100000000004
C      48.985799999999990     47.492350000000002     47.899500000000003
C      47.190300000000001     47.042249999999996     45.466300000000004
C      50.686699999999995     47.958849999999998     45.876400000000004
C      49.441799999999994     47.336150000000004     44.127800000000001
C      49.432600000000001     47.483850000000004     46.537999999999997
C      48.654499999999992     47.278050000000007     45.363799999999998
C      46.868000000000002     47.427049999999994     49.337800000000001
C      45.488599999999998     47.180449999999993     49.642700000000005
C      44.828600000000002     46.552850000000007     48.471400000000003
C      45.405799999999992     46.666349999999994     47.084400000000002
C      47.652399999999993     48.065749999999994     50.429900000000004
C      47.105200000000004     48.545649999999995     51.689700000000002
C      45.788699999999999     48.235549999999989     51.835200000000000
C      44.952999999999996     47.916449999999998     50.663499999999999
C      49.045200000000001     48.101849999999999     50.324600000000004
C      49.666400000000003     47.805549999999997     49.088099999999997
C      43.607699999999994     46.066550000000007     48.624399999999994
C      43.042800000000000     45.298550000000006     47.507800000000003
C      43.446499999999993     45.257649999999998     46.217500000000001
C      44.640499999999996     46.069350000000000     46.015799999999999
C      46.261800000000001     47.013149999999996     44.160899999999998
C      45.326699999999995     45.859350000000006     44.693700000000000
C      51.150299999999994     48.143649999999994     49.342500000000001
C      51.853800000000000     48.749449999999996     46.153999999999996
C      51.696700000000000     49.562749999999994     49.353999999999999
C      53.113999999999997     49.506949999999989     49.110100000000003
C      52.788400000000003     49.636949999999999     45.297300000000000
H      52.221200000000003     50.448850000000007     45.008600000000001
H      51.464399999999991     51.419550000000001     49.233199999999997
H      51.642299999999999     47.444749999999999     43.826999999999998
H      49.027200000000001     47.434349999999995     43.135099999999994
H      45.276999999999994     48.318250000000006     52.864900000000006
H      47.737999999999992     48.567850000000007     52.662099999999995
H      44.104300000000002     48.395349999999993     50.851399999999998
H      49.772799999999997     48.239649999999997     51.160600000000002
H      43.100499999999997     45.958749999999995     49.521100000000004
H      42.204400000000000     44.584850000000003     47.628799999999998
H      43.075499999999998     44.580449999999999     45.564200000000000
H      46.949999999999996     46.942949999999996     43.210700000000003
H      45.955599999999997     47.977649999999997     43.759599999999999
H      44.607899999999994     45.484049999999996     44.173500000000004
H      45.982199999999999     44.876850000000005     44.611300000000000
H      51.790699999999994     47.535449999999997     48.630099999999999
H      53.777999999999999     50.395150000000001     48.959000000000003
H      53.795600000000000     48.789850000000001     49.494900000000001
H      51.450600000000001     47.543249999999986     50.218100000000007
H      53.601499999999994     49.124150000000000     44.832099999999997
H      51.761800000000001     49.399950000000004     46.940799999999996
H      53.475299999999997     49.975250000000003     46.103600000000000
O      50.837600000000002     50.592749999999995     49.487499999999997
