6

C      47.375699999999995     48.398649999999989     47.944849999999988
C      48.443900000000006     47.524349999999998     47.860050000000001
H      47.475000000000001     49.213850000000001     47.007549999999995
H      46.717900000000000     48.506350000000005     48.992450000000005
H      48.555700000000009     46.786149999999999     48.770949999999999
H      49.282100000000000     47.709749999999993     47.266850000000005
