25

C      48.654949999999999     46.992049999999999     49.845249999999993
C      46.826250000000009     48.924050000000008     50.961050000000000
C      48.036950000000004     49.110150000000004     49.832350000000005
C      50.297549999999994     47.566850000000002     46.488849999999999
C      48.403750000000002     48.279750000000007     49.080750000000009
C      48.860050000000008     48.201150000000005     46.507150000000010
C      48.033650000000009     48.124850000000009     47.716650000000001
C      48.247750000000003     48.376550000000009     45.188050000000004
C      46.563750000000006     47.712050000000005     47.614450000000005
C      46.821250000000006     48.550150000000002     45.327449999999999
C      45.991650000000007     47.967550000000003     46.313850000000002
H      49.653750000000009     46.926850000000002     50.373750000000001
H      47.796350000000004     46.917550000000006     50.635550000000009
H      48.301750000000006     45.985950000000003     49.256950000000003
H      46.182850000000009     48.014550000000000     50.759150000000005
H      46.101550000000003     49.931650000000005     51.037450000000007
H      47.139050000000005     48.827449999999999     51.917050000000003
H      48.460450000000009     50.014049999999997     50.141350000000003
H      50.738950000000010     47.364150000000009     47.378650000000007
H      50.943549999999995     48.567150000000005     45.940950000000001
H      48.878650000000000     48.286950000000004     44.082949999999997
H      45.788150000000009     47.652150000000006     48.556750000000008
H      46.122550000000004     49.184750000000008     44.822950000000006
H      45.056450000000005     48.209350000000001     46.037649999999999
H      49.936450000000015     46.737750000000005     45.588350000000005
