18

C      46.596799999999988     49.589299999999987     46.715399999999995
C      46.563000000000002     48.611800000000002     49.567000000000007
C      47.277299999999997     48.262799999999999     47.343500000000006
C      47.432100000000005     47.769000000000005     48.610799999999998
C      48.148600000000002     47.546400000000006     46.455900000000000
C      48.461100000000002     46.872500000000002     49.133000000000003
C      49.225600000000000     46.644000000000005     46.817300000000003
C      49.450200000000009     46.459000000000003     48.162100000000002
H      46.138499999999993     50.266900000000007     47.544400000000003
H      46.787199999999999     48.214600000000004     50.626099999999994
H      47.181200000000004     50.279899999999998     45.960700000000003
H      45.715400000000002     49.008899999999997     46.400100000000002
H      47.187300000000008     49.590500000000006     49.416100000000000
H      45.664199999999994     49.032700000000006     48.976399999999998
H      48.277900000000002     47.829300000000003     45.373900000000006
H      48.598500000000001     46.857900000000001     50.197600000000001
H      50.286100000000005     46.584100000000007     46.263900000000007
H      50.335800000000006     45.720100000000002     48.363900000000001
