6

C      48.236749999999994     48.040449999999993     48.630549999999999
C      47.795949999999998     48.024650000000001     47.345650000000006
H      49.245249999999999     47.560150000000000     48.631650000000000
H      47.796849999999999     48.439850000000000     49.647849999999998
H      48.324649999999998     47.910149999999994     46.352150000000002
H      46.754750000000001     48.359450000000002     47.566250000000004
