6

C      48.383049999999997     48.436549999999997     48.445599999999999
C      47.461950000000002     48.269050000000007     47.380900000000004
H      49.550849999999997     48.530950000000004     48.161999999999999
H      47.992850000000004     48.179450000000003     46.456300000000006
H      46.449150000000003     47.469049999999996     47.367299999999993
H      48.751549999999995     48.437150000000003     49.543699999999994
