8

C      48.007799999999989     47.403749999999995     48.340550000000000
C      48.029400000000003     48.820849999999993     47.670150000000007
H      48.367200000000004     48.483750000000001     46.693849999999998
H      48.187700000000000     47.723150000000004     49.306150000000002
H      48.968200000000003     49.382549999999995     48.166950000000000
H      47.302399999999999     49.225750000000005     47.081350000000000
H      48.674100000000003     46.617450000000005     47.994050000000001
H      47.031799999999997     47.128349999999998     48.693749999999994
