5

C      47.855229999999992     48.389099999999999     47.637149999999984
C      48.705030000000001     47.986699999999999     48.574349999999995
H      46.781370000000003     48.071700000000007     47.761449999999996
H      48.020229999999998     48.409499999999994     46.601450000000000
H      49.218629999999997     47.590500000000006     49.398550000000000
