17

C      47.701849999999993     50.218249999999991     46.899499999999996
C      47.293349999999997     48.963450000000009     49.594700000000003
C      48.328949999999999     48.949950000000001     47.304199999999994
C      47.934249999999999     48.238950000000003     48.460400000000000
C      49.066849999999995     47.958449999999999     46.336799999999997
C      47.911850000000001     46.841149999999999     48.591999999999999
C      48.718449999999997     46.601349999999996     46.309699999999999
C      48.231850000000001     46.082850000000008     47.518699999999995
H      46.678750000000001     50.141050000000007     46.660200000000003
H      48.063049999999997     50.897149999999996     46.112499999999997
H      47.883249999999997     49.897250000000000     49.591700000000003
H      47.666150000000002     48.359350000000006     50.539499999999997
H      49.817450000000001     48.384349999999998     45.591799999999999
H      47.508849999999995     46.183549999999997     49.500100000000003
H      48.708949999999994     46.016249999999999     45.460500000000003
H      47.734749999999998     45.102850000000004     47.334999999999994
H      46.182549999999999     49.376150000000010     49.920000000000002
