5

C      47.783349999999992     48.323999999999991     47.893759999999993
H      47.935250000000011     47.079200000000000     47.567279999999997
H      47.148949999999999     48.920800000000000     47.266340000000000
H      47.240250000000003     48.005400000000002     48.733660000000000
H      48.851050000000001     48.850500000000011     48.310789999999997
