6

C      48.158049999999989     48.634249999999994     48.261099999999992
C      47.762450000000008     47.474449999999997     47.796300000000002
H      49.163850000000004     48.767649999999996     48.678100000000001
H      47.309850000000004     49.381549999999997     48.652900000000002
H      46.836149999999996     47.277350000000006     47.321899999999999
H      48.584550000000000     46.618450000000003     47.719999999999999
