14

C      49.486849999999997     46.460384999999981     46.893559999999994
C      47.330350000000003     47.760884999999988     47.608089999999997
C      48.817950000000003     47.641784999999999     47.465339999999998
C      46.583550000000002     48.600441000000004     48.616309999999999
C      49.444450000000003     48.810498000000010     48.174889999999998
C      47.294650000000004     49.536715000000001     49.265779999999999
C      48.652850000000001     49.895744999999991     48.807980000000001
H      46.550750000000001     47.281385000000000     46.952030000000001
H      50.329350000000005     46.632784999999998     46.231839999999998
H      49.172550000000001     45.339084999999997     47.230869999999989
H      45.533050000000003     48.344081799999998     48.736590000000000
H      50.466949999999997     49.088237000000007     48.144749999999995
H      46.573550000000004     50.312425000000005     49.768160000000002
H      48.924750000000003     50.660915000000003     49.406329999999997
