22

C      49.024849999999986     46.742184999999992     49.922649999999997
C      49.339050000000000     48.061784999999993     49.953649999999996
C      49.028250000000000     46.550684999999994     46.655349999999999
C      47.420149999999992     46.394384999999993     49.640450000000001
C      48.169950000000000     47.495084999999996     47.478350000000006
C      47.067849999999993     47.174985000000000     48.362350000000006
C      47.849649999999997     48.609985000000002     46.621549999999999
C      46.123849999999990     48.221484999999994     48.515150000000006
C      46.967550000000003     49.806351000000014     46.928550000000001
C      46.312749999999994     49.603094000000006     48.197249999999997
H      49.801650000000009     45.942185000000002     49.965249999999997
H      50.423150000000007     47.989285000000002     50.361850000000004
H      48.808049999999994     48.941984999999995     49.761949999999999
H      49.005349999999993     45.495384999999992     47.094650000000001
H      48.540250000000000     46.313584999999996     45.737750000000005
H      50.073349999999991     46.794684999999994     46.399950000000004
H      46.890050000000002     46.989784999999991     50.352850000000004
H      46.964550000000003     45.324684999999995     50.089150000000004
H      48.251649999999998     48.244284999999998     45.638149999999996
H      45.576849999999993     47.901384999999998     49.409049999999993
H      47.067049999999995     50.675315000000005     46.398650000000004
H      45.817250000000001     50.276514999999996     48.888750000000002
