14

C      46.881199999999993     46.116249999999994     47.202149999999989
C      46.693400000000004     48.335249999999995     47.965510000000009
C      47.628800000000005     47.304049999999997     47.877380000000002
C      46.975500000000004     49.657050000000005     48.493639999999999
C      48.863300000000002     47.424950000000003     48.473919999999993
C      48.268300000000004     49.722249999999995     48.965640000000008
C      49.185300000000005     48.607250000000001     49.079340000000002
H      48.313700000000004     50.520249999999997     49.678390000000007
H      47.384800000000006     45.674849999999999     46.321609999999993
H      46.269500000000001     45.479750000000003     47.843730000000008
H      46.083900000000007     50.438250000000004     48.281959999999998
H      49.673800000000007     46.876749999999994     48.442999999999998
H      45.722799999999999     48.703750000000007     47.475280000000012
H      50.277200000000001     48.656450000000000     49.533360000000002
