52

C      51.223299999999995     46.824899999999992     46.172299999999993
C      49.212800000000001     49.691499999999991     48.337699999999984
C      48.292199999999994     50.219600000000000     47.431299999999993
C      47.233000000000004     45.480100000000000     48.080500000000001
C      46.168800000000005     46.095199999999998     47.335899999999995
C      49.579099999999997     48.376499999999993     47.508600000000001
C      47.518199999999993     49.441000000000003     46.416599999999988
C      48.443799999999996     46.170299999999997     48.326699999999988
C      46.028499999999994     47.431800000000003     46.850299999999990
C      48.420500000000004     47.452600000000004     47.676899999999989
C      47.326300000000003     47.950600000000001     46.781499999999994
C      49.668899999999994     50.540300000000002     49.314799999999991
C      49.304199999999994     51.867000000000004     49.714599999999990
C      48.439200000000000     52.450199999999995     48.756599999999992
C      47.905500000000004     51.630899999999997     47.614199999999997
C      50.823599999999999     47.882400000000004     47.275599999999997
C      50.947199999999995     48.859900000000003     50.696999999999989
C      50.993300000000005     50.180700000000002     50.054099999999991
C      47.086100000000002     50.031700000000001     45.229799999999997
C      46.890799999999999     51.481700000000004     45.223199999999991
C      47.221299999999999     52.186899999999994     46.415899999999993
C      46.686499999999995     44.314799999999998     48.986299999999986
C      46.304299999999998     43.433399999999999     47.811399999999992
C      44.932699999999997     43.756300000000003     47.202599999999990
C      44.864499999999992     45.339800000000004     47.170099999999991
H      52.029399999999995     47.063600000000008     45.362600000000000
H      50.362899999999996     46.593699999999998     45.605699999999999
H      51.458799999999997     45.926299999999998     46.550799999999995
H      48.334000000000003     53.626599999999996     48.924299999999988
H      51.623399999999990     48.230099999999993     47.787099999999995
H      51.857599999999991     50.411400000000000     49.575199999999995
H      50.751700000000000     48.010300000000001     50.124699999999990
H      50.119500000000002     49.219800000000006     51.332699999999988
H      51.649599999999992     48.629599999999996     51.678899999999999
H      51.204099999999997     50.995699999999999     50.621699999999990
H      44.933499999999995     48.421399999999991     45.432800000000000
H      46.798299999999998     49.312600000000003     44.449199999999990
H      46.545599999999993     52.046100000000003     44.321100000000001
H      46.939499999999995     53.275100000000002     46.716999999999985
H      45.944900000000004     44.792300000000004     49.566099999999992
H      47.178299999999993     43.646100000000004     49.725699999999989
H      46.194500000000005     42.373400000000004     48.248799999999989
H      47.065399999999997     43.413499999999999     47.055199999999999
H      45.025400000000005     43.332300000000004     46.071799999999996
H      44.075599999999994     42.966700000000003     47.710899999999995
H      43.970600000000005     45.526800000000001     46.346299999999999
H      44.067700000000002     45.856400000000001     47.842900000000000
H      49.989300000000000     53.528500000000008     50.544099999999986
H      48.652199999999993     44.969400000000000     49.857599999999991
O      44.888300000000001     47.846400000000003     46.278999999999996
O      50.109399999999994     52.542900000000003     50.578799999999987
O      49.236899999999991     45.732799999999997     49.300799999999995
