48

C      46.837799999999994     48.909999999999997     51.450499999999991
C      45.364600000000003     48.817999999999998     46.631899999999995
C      46.062100000000001     49.173999999999992     50.183799999999998
C      45.231700000000004     49.290800000000004     47.853800000000000
C      47.879400000000004     48.019400000000005     51.152499999999996
C      46.497500000000002     47.985699999999994     46.441099999999999
C      49.112200000000001     46.828400000000002     49.018699999999995
C      48.120300000000000     46.426100000000005     47.997599999999998
C      46.329900000000002     49.135400000000004     48.803500000000000
C      48.398499999999999     47.977300000000000     49.782999999999994
C      47.274599999999992     47.476600000000005     47.584699999999998
C      47.539700000000003     48.351500000000001     48.696500000000000
C      45.593400000000003     49.951499999999996     52.760200000000005
C      44.655000000000001     50.494199999999992     51.773900000000005
C      44.972700000000003     50.136399999999995     50.441399999999994
C      44.113000000000000     50.897199999999998     49.488799999999998
C      44.287300000000002     50.438000000000002     48.251700000000000
C      48.595800000000011     47.078800000000001     52.108799999999995
C      46.786400000000000     47.379400000000004     45.143200000000000
C      51.230199999999996     48.859300000000005     43.824399999999997
C      50.244600000000005     47.778099999999995     44.207299999999996
C      49.241700000000009     47.921700000000001     45.082599999999999
C      50.340099999999993     46.737899999999996     43.005799999999994
C      48.166499999999999     46.947500000000005     44.889699999999998
C      49.927199999999999     45.315399999999997     43.507799999999996
C      50.362800000000007     45.023499999999999     44.762200000000000
H      44.632400000000004     48.972499999999997     45.713600000000000
H      49.639800000000008     46.015199999999993     49.607299999999995
H      48.244700000000002     45.546899999999994     47.324199999999998
H      45.448999999999998     50.505199999999988     53.809300000000000
H      43.778800000000004     50.935499999999990     47.380499999999998
H      43.711500000000001     51.891199999999998     49.861100000000000
H      48.883700000000005     47.608199999999997     52.903099999999988
H      49.406700000000001     46.558300000000003     52.006499999999996
H      47.947599999999994     46.179100000000005     52.572299999999998
H      49.823400000000007     46.949399999999997     42.190700000000000
H      46.111300000000000     47.492400000000004     44.253200000000000
H      44.104800000000004     51.424399999999991     51.918199999999992
H      50.487099999999998     45.961900000000000     45.292199999999994
H      51.235700000000001     48.821500000000000     42.684799999999996
H      50.979799999999997     49.847200000000001     44.056899999999999
H      49.406199999999998     48.732500000000002     45.882399999999997
H      52.288499999999999     48.297100000000000     44.120399999999997
H      51.204999999999998     46.774999999999991     42.449399999999997
H      47.924499999999995     46.606899999999996     43.892899999999997
H      49.790000000000006     44.542400000000001     42.963199999999993
H      50.383200000000002     44.108800000000002     45.295699999999997
N      46.667200000000001     49.264399999999995     52.671899999999987
