19

C      46.567849999999993     47.799399999999999     45.489699999999999
C      46.271850000000001     47.671700000000001     46.783799999999999
C      47.170749999999998     49.403900000000007     49.200000000000003
C      47.355550000000001     47.248199999999997     47.635100000000008
C      47.718150000000001     48.042200000000008     48.822400000000002
C      48.439349999999997     46.427099999999996     47.292100000000005
C      48.175049999999999     47.204999999999998     50.077700000000007
C      49.528349999999996     46.490600000000001     48.201200000000000
C      49.583050000000007     46.926699999999997     49.544700000000006
H      47.127649999999996     50.072500000000005     48.296800000000005
H      46.229149999999997     48.968500000000006     49.492199999999997
H      47.444150000000000     47.388400000000004     45.050200000000004
H      45.509549999999997     48.446600000000004     47.394000000000005
H      45.794649999999997     48.328900000000004     44.918400000000005
H      47.562750000000001     49.643000000000001     50.266199999999998
H      48.123550000000002     45.927499999999995     46.262700000000009
H      47.757449999999999     46.970700000000008     51.081599999999995
H      50.490450000000003     45.977699999999999     48.203000000000003
H      50.301650000000002     46.862300000000005     50.444500000000005
