23

C      47.436499999999995     51.328084999999994     48.178781499999985
C      48.132300000000008     48.253255000000003     45.991781500000002
C      47.496900000000004     49.778984999999999     48.384381500000003
C      48.885800000000003     47.271725000000004     46.508881500000001
C      48.773500000000006     49.173474999999996     48.456381500000006
C      48.534100000000002     46.781264999999998     47.913681499999996
C      48.424399999999999     47.784945000000000     48.970581500000009
C      48.086700000000000     45.479154999999999     48.119281500000000
C      47.746100000000006     47.591814999999997     50.189981500000002
C      47.686700000000009     45.184355000000004     49.491081500000007
C      47.137300000000003     46.298864999999999     50.302681500000006
H      46.626200000000004     51.579885000000004     49.028181500000002
H      48.423099999999998     51.663785000000004     48.515181499999997
H      46.769100000000002     51.680585000000001     47.377981500000004
H      47.095700000000001     48.747145000000003     46.277481500000007
H      48.306600000000003     48.711574999999996     45.035681499999995
H      49.799600000000005     47.059355000000004     46.129581500000000
H      49.951900000000002     49.657564999999998     48.382581500000001
H      46.782900000000005     49.393565000000002     48.809281499999997
H      48.098500000000001     44.974944999999998     47.170981499999996
H      47.319000000000003     48.344435000000004     50.964318500000005
H      47.125000000000007     44.319414999999999     49.955581500000008
H      46.048099999999998     46.184694999999998     50.727270900000008
