147

C      43.498949999999994     48.950299999999999     46.822899999999997
C      42.601349999999996     44.150100000000002     46.813700000000004
C      43.378549999999990     46.811000000000000     51.096200000000003
C      42.593050000000005     47.863900000000008     46.342200000000005
C      43.601549999999989     49.163799999999995     48.206900000000005
C      42.412849999999992     45.376500000000000     46.185800000000000
C      43.311250000000001     48.095400000000005     50.295200000000008
C      42.928449999999998     44.074100000000008     48.270099999999999
C      43.441549999999992     45.458500000000008     50.471699999999991
C      42.616949999999989     46.627299999999998     47.035400000000003
C      43.191950000000006     47.997100000000010     48.939200000000000
C      43.265749999999997     45.356800000000000     49.042800000000000
C      43.075749999999999     46.585700000000010     48.352699999999992
C      44.064449999999994     50.060700000000004     46.056899999999999
C      42.998249999999999     50.273200000000010     45.093800000000002
C      42.070049999999995     49.290500000000002     44.483400000000003
C      41.961050000000000     47.974600000000002     45.079500000000003
C      42.103049999999996     46.845500000000008     44.214700000000008
C      42.245149999999995     45.515599999999999     44.728900000000003
C      42.346750000000000     42.889000000000003     46.318700000000007
C      42.212950000000006     41.620100000000001     47.113000000000000
C      42.357250000000008     41.642200000000010     48.544700000000006
C      42.813649999999996     42.929200000000002     49.072099999999999
C      42.184149999999988     43.059400000000004     44.854700000000008
C      42.260450000000006     44.191700000000004     44.064499999999995
C      42.649149999999992     46.697000000000010     52.310000000000002
C      42.367749999999987     48.030600000000000     52.757100000000008
C      42.501149999999996     49.359800000000000     52.152700000000010
C      43.082850000000008     49.442000000000000     50.802999999999990
C      43.337649999999996     50.690899999999999     50.061500000000009
C      43.855149999999995     50.512199999999993     48.778800000000004
C      41.884249999999994     49.619900000000001     43.071400000000004
C      41.818349999999995     48.463500000000003     42.253600000000006
C      42.000649999999993     47.253599999999999     42.820900000000002
C      41.948149999999998     40.436600000000006     46.414800000000000
C      41.620249999999999     40.578600000000002     44.958700000000007
C      41.802549999999997     41.828400000000009     44.229100000000003
C      45.505349999999993     50.183900000000001     45.917500000000004
C      46.019649999999999     50.990400000000001     44.901899999999998
C      47.043349999999990     50.635899999999999     44.304000000000002
C      42.839950000000002     51.801300000000005     44.829300000000003
C      42.038049999999998     48.261500000000005     54.231600000000000
C      42.435050000000004     40.455100000000009     49.432899999999997
C      48.386250000000004     51.744999999999990     46.855800000000002
C      49.541249999999991     51.718000000000011     46.097200000000001
C      48.845549999999989     46.838299999999997     47.165700000000001
C      50.390950000000004     46.786800000000007     46.878900000000002
C      47.800149999999988     50.455699999999993     47.183900000000008
C      50.176049999999989     50.308799999999998     45.840800000000002
C      48.091349999999991     47.953300000000006     47.430000000000007
C      50.920649999999995     48.049500000000002     46.599500000000006
C      48.571150000000003     49.252600000000001     47.035199999999996
C      49.987849999999995     49.117400000000011     46.385300000000001
C      48.030249999999995     53.030900000000003     47.409199999999998
C      48.082049999999995     54.005100000000006     46.310600000000008
C      49.176749999999998     53.997699999999995     45.397500000000008
C      50.000949999999989     53.020499999999998     45.650900000000007
C      48.242849999999990     45.560600000000001     47.424900000000008
C      49.988849999999999     44.504399999999997     46.507400000000004
C      51.031250000000000     45.590800000000009     46.422700000000006
C      46.428749999999994     49.980400000000010     46.927500000000002
C      47.212849999999989     53.328200000000002     48.718500000000006
C      50.749250000000004     50.527699999999996     44.521500000000003
C      52.105549999999994     51.493399999999994     44.722999999999999
C      51.474750000000000     53.180500000000002     44.952200000000005
C      46.585750000000004     47.454000000000001     47.807600000000008
C      46.901949999999999     45.997900000000008     47.724100000000007
C      49.342950000000002     55.157600000000002     50.856300000000005
C      52.056049999999999     53.871600000000008     46.038000000000004
C      50.213049999999996     55.193399999999997     49.763700000000000
C      51.355649999999997     54.685700000000004     47.079899999999995
C      51.714649999999992     55.549799999999998     49.584399999999995
C      52.038950000000000     55.610999999999997     48.079800000000006
C      52.623349999999988     55.963700000000010     50.550199999999997
C      53.234949999999998     56.233100000000000     47.888599999999997
C      53.763149999999996     56.811200000000007     50.150999999999996
C      54.174250000000001     56.739100000000001     48.858699999999992
C      46.734849999999994     41.278300000000009     49.263000000000005
C      43.799449999999993     39.873200000000004     49.140700000000010
C      45.986349999999987     40.821500000000007     50.430699999999995
C      44.741349999999997     40.206899999999997     50.322600000000008
C      46.615549999999999     40.966400000000000     51.596699999999991
C      44.133749999999992     39.697400000000009     51.543500000000009
C      45.954349999999991     40.517699999999998     52.778199999999991
C      44.675349999999995     39.919300000000000     52.836700000000008
H      44.041849999999997     44.875800000000005     50.927500000000009
H      42.045150000000007     46.165700000000008     53.937200000000004
H      42.834850000000003     43.152600000000000     50.064500000000010
H      41.945750000000004     50.116900000000001     52.619099999999996
H      43.454650000000001     51.734600000000007     50.605800000000002
H      44.233050000000006     51.423600000000000     48.315800000000003
H      41.659049999999993     50.524500000000010     42.377500000000005
H      42.069849999999988     48.483300000000007     41.143700000000003
H      41.846349999999987     46.507600000000004     42.185100000000006
H      41.759850000000000     39.534100000000002     46.936399999999999
H      41.664249999999996     39.512599999999999     44.677099999999996
H      41.557950000000005     42.087700000000005     43.241500000000002
H      42.321250000000006     52.218499999999999     45.734700000000004
H      46.982949999999988     50.493600000000008     43.222000000000008
H      45.361049999999992     51.976800000000004     44.669499999999999
H      48.138649999999998     50.454200000000007     44.676600000000008
H      42.225750000000005     51.786700000000003     43.951400000000007
H      43.632949999999994     52.485700000000001     44.548699999999997
H      41.576350000000005     44.075600000000001     42.441000000000003
H      42.374249999999989     40.691000000000010     50.682100000000005
H      41.742750000000001     39.546200000000006     49.359000000000009
H      52.052049999999994     48.011900000000004     46.365099999999998
H      47.428749999999994     54.836100000000009     46.339900000000000
H      50.577549999999988     43.390700000000002     46.164900000000003
H      45.672449999999998     47.634000000000007     47.232700000000008
H      47.445650000000001     54.214300000000001     49.035999999999994
H      45.998649999999998     53.503000000000007     48.405000000000001
H      50.049650000000000     50.978000000000002     43.803400000000003
H      51.345050000000001     49.573399999999992     44.529300000000006
H      52.935949999999991     51.240900000000003     44.017600000000002
H      52.583749999999995     51.327599999999990     45.673000000000002
H      51.610549999999989     53.637300000000003     43.910600000000002
H      46.220549999999989     49.768400000000007     47.903600000000004
H      46.148249999999990     45.515200000000000     48.221000000000004
H      46.592449999999999     47.892900000000004     48.889300000000006
H      52.292850000000001     44.249600000000008     46.712500000000006
H      42.579449999999994     47.483800000000009     54.856299999999997
H      48.237849999999995     54.847100000000005     50.676400000000001
H      49.492749999999987     55.454300000000003     51.991199999999999
H      49.019949999999994     55.994900000000001     45.105600000000003
H      53.368849999999995     53.849000000000004     46.266300000000001
H      50.080849999999998     55.004300000000008     48.609999999999999
H      50.589050000000000     53.953200000000002     47.494100000000003
H      52.432149999999993     55.539099999999998     51.539900000000003
H      53.533649999999994     56.114400000000003     46.775700000000001
H      54.412749999999988     57.247599999999998     50.796599999999991
H      55.053950000000000     57.162500000000001     48.791499999999999
H      47.632649999999998     41.817600000000006     49.377000000000010
H      46.420349999999999     40.770800000000001     48.392900000000004
H      44.128449999999987     39.839800000000004     48.047899999999998
H      43.660449999999997     38.752400000000002     49.472900000000003
H      47.704649999999987     41.297699999999999     51.546500000000009
H      43.161150000000006     39.372999999999998     51.268099999999997
H      46.363650000000007     40.435300000000005     53.913200000000003
H      44.224750000000000     39.952599999999997     53.842999999999996
H      47.212849999999989     52.576900000000002     49.506900000000002
N      48.799750000000003     44.372900000000008     47.224500000000006
O      40.946050000000000     48.640900000000009     54.494500000000002
O      42.066049999999990     45.559800000000003     52.988700000000009
O      42.557749999999999     44.024400000000007     42.632599999999996
O      49.314449999999994     55.125900000000009     44.549100000000003
O      52.292649999999995     45.297400000000003     46.506100000000004
