5

C      48.232500000000002     47.764399999999995     47.932199999999987
H      48.388900000000007     47.298199999999994     48.922200000000004
H      48.156700000000001     47.193600000000004     47.077799999999996
H      47.267700000000005     47.615799999999993     48.279799999999994
H      48.732299999999995     48.806399999999996     47.872699999999995
