6

C      48.416499999999999     48.081499999999991     47.211399999999990
C      47.559400000000004     48.415100000000002     48.241599999999991
H      47.789499999999997     47.584899999999998     46.698099999999997
H      49.418200000000006     48.205099999999995     47.493400000000001
H      46.581799999999994     48.067900000000002     48.085999999999999
H      48.066799999999994     48.224199999999989     49.301900000000003
