41

C      49.144509999999990     45.417099999999991     46.299344999999988
C      47.807157999999994     44.962600000000009     46.204984999999994
C      47.744969999999995     48.236600000000010     49.618875000000003
C      46.697399999999988     47.259900000000002     50.207885000000005
C      49.745929999999987     46.290999999999997     47.285955000000001
C      47.393299999999982     44.820300000000003     47.571584999999999
C      49.036379999999994     47.869600000000005     49.119974999999997
C      46.752500000000005     45.975700000000003     49.646365000000003
C      48.775659999999995     46.629700000000000     48.408145000000005
C      47.665773599999994     45.747200000000007     48.605815000000007
C      50.044299999999993     45.358100000000007     45.162516999999994
C      49.637909999999991     44.503500000000003     44.112955000000028
C      48.268441999999993     44.236600000000010     43.866554999999991
C      47.342299999999994     44.487800000000007     44.889443999999997
C      47.470300000000023     49.710599999999999     49.585634999999996
C      46.355100000000007     50.193700000000007     50.205385000000007
C      45.557500000000005     49.269600000000011     51.113974999999996
C      45.962200000000010     47.919300000000007     51.331675000000004
C      50.728479999999990     47.263400000000004     47.103215000000006
C      51.465990000000005     47.262100000000004     45.943825000000004
C      51.346579999999996     46.094700000000003     45.159212999999994
C      45.867500000000021     51.526000000000010     49.693275000000014
C      44.301400000000001     49.192300000000003     51.969324999999998
H      46.328800000000008     44.469500000000011     48.013455000000008
H      49.929890000000000     48.495000000000005     48.855525000000000
H      46.025000000000006     45.360500000000002     49.939644999999999
H      50.146209999999996     44.192900000000009     43.303155000000018
H      47.725966799999995     43.927599999999998     43.038655000000006
H      48.241667999999997     50.593400000000003     49.422425000000004
H      45.441399999999987     47.065300000000008     52.029205000000005
H      50.732590000000002     48.067999999999998     47.684664999999995
H      52.285199999999989     48.022600000000011     45.922984999999997
H      52.275289999999998     45.834600000000009     44.636529499999995
H      45.423000000000016     44.042100000000005     44.139255000000006
H      45.205799999999989     51.930800000000005     50.570895000000007
H      45.137400000000000     51.390299999999996     48.775905000000009
H      46.812200000000004     52.072400000000002     49.227305000000001
H      43.721900000000012     48.451800000000006     51.511975000000007
H      43.714800000000011     49.988600000000005     52.235545000000002
H      44.617099999999994     48.727100000000007     52.961344999999994
O      45.944699999999983     44.187899999999999     44.942873000000006
