22

C      45.955899999999993     49.446649999999991     48.950299999999984
C      47.428399999999996     49.079750000000004     49.296399999999991
C      46.583200000000005     46.409750000000003     47.307999999999993
C      45.894800000000004     49.158150000000006     47.615499999999997
C      47.658699999999996     47.377049999999997     46.904399999999995
C      47.265400000000000     48.652150000000006     47.000399999999999
C      49.131900000000002     47.061149999999998     46.939599999999999
C      48.201999999999998     49.569150000000008     46.351599999999991
C      49.987400000000008     48.149450000000002     46.665599999999998
C      49.488000000000000     49.338650000000001     46.210700000000003
H      47.662099999999995     48.103549999999998     48.808499999999995
H      47.869200000000006     48.886049999999997     50.262299999999996
H      45.094499999999996     49.528550000000010     49.567800000000005
H      47.988200000000006     49.912250000000000     48.729299999999995
H      46.755700000000004     45.570149999999998     47.925600000000003
H      45.885000000000005     46.072749999999999     46.448999999999998
H      45.793400000000005     46.884450000000001     47.775700000000001
H      44.928200000000004     49.508350000000007     47.104199999999992
H      49.206800000000001     46.044550000000001     47.366100000000003
H      47.651600000000002     50.429850000000002     45.737700000000004
H      51.071799999999996     47.659450000000007     46.767699999999991
H      50.187899999999999     50.234350000000006     45.845699999999994
