33

C      48.868799999999993     49.018009999999997     47.970999999999989
C      51.811499999999995     47.078200000000002     47.703699999999998
C      49.644300000000001     50.128410000000002     48.160800000000009
C      51.621699999999990     48.073509999999999     48.493899999999996
C      50.626700000000000     50.324309999999997     49.177700000000002
C      51.430399999999992     49.067710000000005     49.427500000000009
C      50.184399999999997     51.102209999999999     50.321899999999999
C      51.972299999999990     48.807910000000000     50.746899999999997
C      50.274299999999997     50.576410000000003     51.536400000000000
C      51.375799999999984     49.608109999999996     51.663000000000011
C      45.856099999999998     48.273809999999997     44.762500000000003
C      45.600299999999990     46.107390000000002     45.913499999999999
C      44.638399999999990     47.656010000000002     44.299800000000005
C      44.928399999999996     46.218769999999999     44.454200000000000
C      46.050199999999990     47.562410000000000     45.990700000000004
C      44.130799999999994     45.177309999999999     44.049400000000006
C      46.768099999999990     47.911110000000001     47.259600000000006
C      47.623499999999993     49.189109999999999     47.441900000000004
H      51.407199999999989     46.956290000000003     46.617599999999996
H      49.166799999999995     48.202510000000004     48.483699999999999
H      49.266599999999997     51.029910000000001     47.901800000000009
H      52.406300000000002     46.037660000000002     48.023600000000002
H      49.301400000000001     51.696210000000001     50.258800000000008
H      52.695599999999999     48.085909999999998     51.083300000000008
H      49.983499999999992     51.239710000000002     52.487000000000009
H      51.612199999999987     49.327309999999997     52.748400000000004
H      45.916899999999998     49.348709999999997     44.815500000000000
H      44.824699999999993     45.849409999999999     46.650100000000009
H      46.395899999999997     45.522790000000001     46.204300000000003
H      47.001399999999990     47.009299999999996     47.792200000000008
H      43.304400000000001     44.303789999999999     43.817200000000000
H      44.266300000000001     47.652509999999999     43.251599999999996
H      47.264399999999995     50.234909999999999     47.081800000000001
