18

C      48.341049999999996     45.815999999999995     47.155149999999992
C      45.768249999999995     47.925100000000000     47.879550000000002
C      48.446749999999994     47.301500000000004     47.446249999999999
C      47.277749999999997     47.897700000000000     48.172050000000006
C      49.610550000000003     47.857200000000006     47.832950000000004
C      47.560549999999992     49.112799999999993     48.962750000000007
C      49.826849999999993     49.039900000000003     48.477349999999994
C      48.809550000000002     49.893200000000007     48.974650000000004
H      47.542949999999990     45.496099999999998     47.802849999999999
H      45.666449999999998     47.280100000000004     47.003650000000000
H      45.314949999999996     48.766000000000005     48.117650000000005
H      46.942149999999998     49.138800000000003     49.815149999999996
H      48.546549999999996     45.363300000000002     46.184850000000004
H      49.172449999999998     45.351799999999997     47.588749999999997
H      45.174250000000001     47.210400000000007     48.317450000000001
H      50.723449999999985     47.405600000000007     47.709550000000000
H      48.945049999999995     50.648200000000003     49.671950000000002
H      50.825749999999999     49.473500000000001     48.332050000000002
