65

C      43.925499999999985     45.417799999999993     48.276829999999990
C      47.829700000000003     48.923400000000001     48.952679999999994
C      48.865299999999991     49.705600000000004     48.443079999999995
C      48.131399999999999     46.230899999999991     44.875299999999989
C      48.753000000000000     47.416699999999992     44.206300000000013
C      47.426100000000005     47.807900000000004     48.143339999999995
C      49.662399999999991     49.728700000000003     47.258969999999991
C      47.964300000000009     46.466299999999997     46.272429999999993
C      49.245199999999997     48.626899999999992     44.944699999999990
C      48.052599999999998     47.721099999999993     46.846589999999992
C      49.036000000000001     48.767200000000003     46.331549999999993
C      47.364300000000000     49.193399999999997     50.367259999999995
C      47.915700000000001     50.451200000000000     50.942099999999989
C      49.644999999999996     50.528099999999995     49.504639999999995
C      47.716200000000001     45.126700000000000     44.108199999999997
C      47.742699999999999     44.923000000000002     42.754900000000006
C      48.458500000000001     46.058499999999995     42.245399999999997
C      49.099800000000002     47.224099999999993     42.893199999999993
C      46.309100000000001     48.433099999999996     50.732239999999997
C      45.725399999999993     48.732900000000001     52.052479999999996
C      46.676699999999997     49.554800000000000     52.801089999999995
C      47.394800000000004     50.623400000000004     52.225499999999997
C      45.798400000000001     47.337999999999994     49.872989999999994
C      46.500999999999991     46.869100000000003     48.756169999999990
C      46.183000000000007     45.722700000000003     47.862509999999993
C      46.989800000000002     45.465499999999992     46.758959999999995
C      47.137699999999995     44.001400000000004     45.036700000000017
C      46.091399999999993     44.673999999999999     45.858958999999992
C      51.069800000000001     49.921199999999999     47.050149999999995
C      51.722399999999993     50.484399999999994     48.239719999999991
C      50.970399999999998     50.945200000000000     49.299459999999996
C      49.920400000000001     49.449900000000000     43.903299999999994
C      49.856999999999999     48.520700000000005     42.808700000000002
C      45.101299999999995     47.708799999999997     53.030070000000002
C      45.352999999999994     46.499699999999997     55.027349999999991
C      45.932099999999991     47.509199999999993     54.314149999999991
C      47.525999999999996     52.130700000000004     52.942839999999997
C      48.781899999999993     46.369100000000003     40.805400000000006
C      45.018400000000000     44.762900000000002     48.277859999999997
H      43.946699999999993     46.440199999999990     48.011179999999996
H      43.159899999999993     45.038699999999999     48.969799999999992
H      47.457599999999999     43.888499999999993     42.229599999999984
H      46.116999999999990     49.578800000000001     53.815210000000000
H      46.593299999999999     43.086799999999997     44.516900000000007
H      47.941499999999991     43.626999999999995     45.743415999999996
H      45.589399999999998     43.852400000000003     46.593559999999997
H      45.295299999999997     44.888199999999998     45.192449999999994
H      51.807100000000005     50.222200000000001     46.157129999999995
H      52.840100000000007     50.976199999999992     48.318209999999993
H      51.609700000000004     51.382599999999996     49.860609999999994
H      50.788499999999999     50.043499999999995     44.115099999999991
H      50.624700000000004     48.820999999999998     42.060800000000008
H      44.281799999999990     46.050799999999995     54.802459999999996
H      47.156999999999996     47.760199999999998     54.631079999999990
H      45.794399999999996     45.937500000000000     55.857899999999994
H      46.587400000000002     52.451799999999992     53.560369999999999
H      48.644199999999998     52.200999999999993     53.116669999999992
H      47.454599999999999     52.913200000000003     52.055129999999984
H      48.916799999999995     47.386300000000006     40.497300000000010
H      49.797799999999995     45.979399999999998     40.662500000000016
H      48.036499999999990     45.989000000000004     40.142100000000006
H      44.986400000000003     46.696500000000000     50.175029999999985
H      44.994299999999996     43.789299999999997     48.875539999999994
N      49.164400000000001     51.006699999999995     50.562040000000003
O      44.253500000000003     47.000299999999996     52.585189999999990
