6

C      48.312274999999985     47.767800000000001     48.590049999999998
C      47.724826999999991     48.153199999999998     47.503150000000005
H      49.239325000000008     47.239400000000003     48.401350000000001
H      48.115274999999997     47.900400000000005     49.657550000000001
H      47.946244999999990     48.142200000000003     46.342449999999999
H      46.760674999999992     48.760599999999997     47.754850000000005
