67

C      50.950199999999995     52.012149999999991     44.137149999999998
C      51.317499999999995     51.764150000000001     45.493949999999998
C      45.167500000000004     46.258150000000001     51.499850000000009
C      44.112700000000004     45.028049999999993     47.103149999999999
C      49.924300000000002     51.279349999999994     43.519250000000000
C      44.794200000000004     45.152950000000004     50.662149999999997
C      44.301699999999997     44.568449999999999     48.401550000000000
C      46.382700000000000     47.034350000000003     51.349150000000009
C      50.576599999999999     50.942849999999993     46.454549999999998
C      44.705299999999994     46.277950000000004     46.631050000000002
C      47.366299999999995     48.552350000000004     49.708250000000007
C      48.391400000000004     49.418449999999993     47.786050000000003
C      46.337900000000005     48.666449999999998     45.822850000000003
C      44.994799999999998     45.612650000000002     49.305850000000007
C      48.929299999999998     50.554950000000005     44.246350000000007
C      46.234999999999999     47.472849999999994     49.983249999999998
C      47.315200000000004     49.560050000000004     45.315150000000003
C      47.282299999999992     48.742050000000006     48.345050000000001
C      49.435800000000000     50.413349999999994     45.808549999999997
C      45.616199999999992     47.008550000000000     47.367649999999998
C      48.357699999999994     49.767049999999998     46.389150000000001
C      46.294600000000003     48.317049999999995     47.203150000000008
C      45.730699999999999     46.750950000000003     48.851750000000010
C      50.392299999999992     50.912350000000004     47.946150000000003
C      49.412099999999995     50.036850000000001     48.633350000000007
C      49.220299999999995     50.075050000000005     50.074950000000001
C      48.101500000000001     49.463149999999999     50.518950000000004
C      44.635199999999998     46.844849999999994     45.289050000000003
C      45.200400000000002     48.125649999999993     44.957149999999999
C      52.507700000000000     52.270949999999999     46.234150000000000
C      52.106299999999990     52.744450000000001     47.722450000000009
C      51.349899999999991     51.699050000000000     48.518150000000006
C      43.520200000000003     44.420050000000003     45.900750000000002
C      44.451300000000003     43.912649999999999     51.247349999999997
C      43.480800000000002     43.595050000000001     48.984250000000003
C      43.518400000000000     43.285950000000000     50.311750000000004
C      49.977999999999994     50.876949999999994     51.254150000000010
C      45.129300000000001     46.331450000000004     53.036650000000009
C      44.661900000000003     48.973249999999993     43.814950000000010
H      46.858899999999991     47.567849999999993     52.151449999999997
H      49.662099999999995     51.058850000000007     42.447850000000003
H      53.028899999999993     53.047550000000001     45.521450000000002
H      53.383899999999997     51.752150000000000     46.375349999999997
H      51.178200000000004     53.459350000000001     47.528149999999997
H      53.025700000000001     53.300749999999994     48.034050000000008
H      51.751400000000004     51.449449999999999     49.565150000000003
H      42.986199999999997     44.652249999999995     44.870150000000010
H      43.786000000000001     46.648250000000004     44.545650000000009
H      44.495800000000003     45.680350000000004     53.542349999999999
H      44.249600000000001     43.713449999999995     52.245150000000010
H      43.102800000000002     42.794449999999998     48.241550000000004
H      42.727899999999991     42.540649999999999     50.751550000000009
H      47.951799999999992     50.352249999999998     52.315950000000001
H      52.303799999999995     53.388550000000009     43.789450000000002
H      44.000100000000003     43.559150000000002     45.468850000000003
H      42.616100000000003     43.733249999999998     46.287450000000007
H      50.082499999999996     51.901349999999994     51.118549999999999
H      51.032100000000000     50.557249999999996     51.235650000000007
H      49.692200000000000     50.514849999999996     52.307350000000000
H      44.544399999999996     47.152249999999995     53.387749999999997
H      46.077299999999994     46.553049999999999     53.552149999999997
H      43.653999999999996     48.932350000000000     43.290149999999997
H      44.759100000000004     49.932050000000004     44.226550000000003
H      45.459000000000003     48.762249999999995     43.021150000000006
N      47.711100000000002     50.095150000000004     44.123050000000006
O      47.597799999999992     49.571449999999999     51.776250000000005
O      51.847499999999997     52.640050000000002     43.302050000000008
