42

C      47.911199999999987     48.135149999999996     48.669499999999992
C      48.266999999999996     47.816050000000004     50.072900000000004
C      43.665499999999994     46.786149999999999     49.791300000000007
C      46.635499999999993     48.424550000000004     47.940799999999996
C      47.146599999999992     47.509250000000002     50.868399999999994
C      44.555199999999999     47.239150000000002     48.793500000000002
C      44.976299999999995     48.037450000000000     51.552000000000007
C      45.769899999999993     47.975450000000002     48.962500000000006
C      45.959599999999995     48.002749999999999     50.401899999999998
C      49.034399999999991     48.142450000000004     47.744000000000000
C      50.212000000000003     47.318550000000002     48.027200000000001
C      50.576399999999992     47.171350000000004     49.301199999999994
C      49.472999999999999     47.012950000000004     50.325400000000002
C      49.054299999999998     48.664950000000005     46.302700000000002
C      50.079200000000000     48.508350000000000     45.459199999999996
C      51.336699999999993     47.992550000000001     46.120100000000001
C      51.539000000000001     47.516150000000003     47.451700000000002
C      46.432000000000002     48.350749999999998     46.502099999999999
C      47.784799999999990     49.220649999999999     45.854700000000001
C      50.430899999999994     49.148450000000004     44.158299999999997
C      51.726199999999992     46.639450000000004     50.143500000000003
C      43.751899999999992     47.481349999999999     51.121200000000002
C      52.740799999999993     47.663850000000004     45.531999999999996
H      42.851699999999994     46.082050000000002     49.566500000000005
H      45.388300000000001     48.384350000000005     45.990800000000000
H      44.890199999999993     48.562249999999999     52.448000000000008
H      49.627799999999993     46.092550000000003     51.322100000000006
H      52.461799999999997     47.412050000000001     47.987400000000001
H      46.471299999999999     47.207050000000002     46.306899999999999
H      47.687199999999990     50.161549999999998     46.384599999999999
H      47.889299999999992     49.662649999999999     44.793400000000005
H      51.255600000000001     49.878650000000000     43.984899999999996
H      52.239599999999996     47.576750000000004     50.414000000000001
H      46.947299999999998     47.849049999999998     52.890799999999999
H      42.690399999999997     47.514350000000000     51.569900000000004
H      43.982999999999990     47.306750000000001     47.970399999999998
H      52.481299999999990     47.155650000000001     44.436700000000002
H      53.241199999999992     48.525749999999995     45.286500000000004
H      53.309600000000003     46.893349999999998     46.275199999999998
O      49.790499999999994     49.067550000000004     43.109200000000001
O      52.428500000000000     45.838450000000002     49.588200000000001
O      47.443899999999999     47.399750000000004     52.251199999999997
