19

C      44.961367999999986     46.554549999999992     50.231849999999994
C      49.287768000000000     46.946449999999999     48.272450000000006
C      49.627767999999989     48.324349999999995     48.212150000000008
C      48.830767999999992     49.505650000000003     48.408250000000010
C      47.519467999999989     49.232450000000000     48.956750000000000
C      47.158367999999996     47.865150000000000     49.242250000000013
C      48.025667999999996     46.825649999999996     48.651950000000014
C      49.966767999999988     45.916849999999997     47.463150000000013
C      51.090167999999991     45.628450000000001     47.836050000000000
C      45.963567999999995     47.411249999999995     49.833950000000002
H      52.128731999999999     45.591650000000001     48.173650000000009
H      45.319267999999994     45.683250000000001     49.600850000000008
H      50.836067999999997     48.612049999999996     47.906450000000007
H      49.203767999999997     50.434250000000006     48.601850000000013
H      47.067167999999995     50.079149999999998     49.096550000000008
H      47.333168000000001     45.923450000000003     48.742050000000006
H      50.212367999999998     46.145250000000004     45.768150000000006
H      43.871268000000001     46.671450000000007     50.193850000000012
O      49.420767999999995     45.565749999999994     46.138350000000003
