6

C      47.592549999999996     48.156449999999985     47.308300000000003
C      48.302050000000008     48.136449999999996     48.429300000000005
H      46.642949999999999     47.732050000000001     47.378700000000002
H      48.284750000000003     48.267949999999999     46.562700000000000
H      47.887749999999997     47.801949999999991     49.437300000000000
H      49.357050000000001     48.182949999999991     48.230200000000004
