6

C      47.520449999999990     47.534250000000000     48.027249999999988
C      48.280050000000003     48.511250000000004     47.940049999999999
H      46.541550000000001     47.919250000000005     48.490949999999998
H      47.736649999999997     46.477149999999995     47.528250000000000
H      49.458449999999999     48.400649999999999     47.509050000000002
H      47.642349999999993     49.522850000000005     48.153449999999992
