25

C      45.385159999999999     49.347199999999987     48.644649999999999
C      46.814480000000003     47.524400000000000     48.558149999999998
C      46.475189999999998     48.743300000000005     47.933850000000007
C      46.280339999999995     47.064899999999994     49.897850000000005
C      45.077770000000001     47.607500000000002     50.323050000000009
C      44.617620000000002     48.711500000000001     49.656250000000000
C      48.053719999999998     46.900099999999995     48.192850000000007
C      47.235900000000001     49.206000000000003     46.733450000000005
C      49.084879999999998     47.466600000000000     47.352850000000004
C      48.736819999999994     48.800299999999993     46.798250000000010
C      50.377129999999994     46.777000000000001     47.272750000000002
C      49.661630000000002     49.200000000000003     45.829549999999998
C      51.277529999999999     47.288699999999992     46.326450000000008
C      50.897729999999996     48.419799999999995     45.615049999999997
H      44.929959999999994     50.267700000000005     48.317750000000004
H      46.744349999999997     46.197099999999992     50.440049999999999
H      44.720839999999995     47.216899999999995     51.289649999999995
H      43.805970000000002     49.055599999999998     50.021150000000006
H      48.440989999999999     45.887699999999995     48.650450000000006
H      46.457949999999997     48.736500000000007     46.046450000000007
H      47.108419999999995     50.245599999999996     46.499750000000006
H      50.536029999999997     45.732299999999995     47.833050000000000
H      48.924549999999996     49.398300000000006     45.012250000000009
H      52.194029999999998     46.687699999999992     45.891550000000009
H      51.513030000000001     48.543099999999995     44.710350000000005
