16

C      49.308449999999993     49.180794999999996     46.751064000000000
C      46.445850000000007     49.858895000000004     48.353943999999998
C      48.696550000000002     48.336231000000005     47.565583999999987
C      47.307450000000003     48.714301000000006     48.234583999999998
C      49.483950000000007     47.089745000000022     47.712913999999998
C      47.046650000000014     47.761445000000002     49.264263999999997
C      48.791150000000002     46.129945000000006     48.649444000000003
C      47.620350000000002     46.507944999999999     49.252294000000006
H      49.945850000000007     49.030695000000001     45.798376000000005
H      45.468750000000000     49.884225000000001     48.878274000000005
H      47.024450000000002     50.862854999999996     47.809083999999999
H      50.531250000000000     46.908845000000007     47.178184000000002
H      46.391450000000006     47.912945000000001     50.201623999999995
H      49.145250000000004     45.137145000000004     49.001363999999995
H      47.379450000000006     45.708344999999994     49.946873999999994
H      48.758750000000006     50.223524999999995     46.918813999999998
