6

C      47.497849999999993     48.380499999999998     48.326549999999997
C      48.454250000000002     47.765000000000008     47.809649999999998
H      47.255650000000003     49.292600000000000     47.765549999999998
H      47.390749999999997     48.058799999999998     49.312050000000006
H      48.744349999999997     47.866900000000008     46.687949999999994
H      48.725149999999999     46.707400000000000     48.065050000000006
