6

C      48.517899999999990     48.271200000000000     47.841599999999985
C      47.529899999999998     47.817900000000009     48.589000000000006
H      48.513499999999993     49.356999999999999     47.607499999999995
H      49.177999999999997     47.687500000000000     47.104099999999995
H      47.402500000000003     46.643000000000001     48.217499999999994
H      46.822000000000003     48.511400000000009     48.895900000000005
