19

C      47.576849999999986     50.085599999999985     48.801699999999990
C      47.811750000000004     50.289400000000001     47.404100000000000
C      47.864350000000002     48.880600000000001     49.375200000000000
C      48.419449999999998     49.314300000000003     46.601399999999998
C      47.666250000000005     47.759100000000004     48.469699999999996
C      48.649349999999998     48.175699999999992     47.174499999999995
C      47.024950000000004     46.537700000000001     48.414699999999996
C      48.881749999999997     47.205399999999997     46.191400000000002
C      47.322050000000004     45.766199999999998     47.234600000000000
C      48.340249999999997     45.913200000000003     46.314499999999995
H      49.673349999999999     48.060100000000006     47.841099999999997
H      47.822350000000000     51.203000000000003     46.901100000000000
H      47.528949999999995     50.959500000000006     49.557499999999997
H      47.976849999999999     48.750500000000002     50.450500000000005
H      48.770650000000003     49.645700000000005     45.549499999999995
H      46.185050000000004     46.185999999999993     49.051900000000003
H      49.814949999999996     47.143000000000001     45.566499999999998
H      46.720050000000001     44.796999999999997     47.288200000000003
H      48.628850000000000     45.116799999999998     45.696799999999996
