22

C      47.312899999999992     45.452799999999996     48.599189999999993
C      47.127799999999993     45.691700000000004     47.235039999999998
C      48.802499999999995     46.332400000000000     49.035790000000006
C      46.549599999999998     46.994800000000005     46.799340000000001
C      48.702199999999991     47.763200000000005     48.447110000000009
C      47.562399999999997     47.999800000000000     47.593140000000005
C      49.562100000000001     48.904500000000006     48.545519999999996
C      47.278300000000002     49.346100000000000     47.589320000000001
C      49.180700000000002     50.251500000000000     48.786510000000007
C      47.870199999999997     50.605499999999999     48.291010000000000
H      47.522300000000001     44.338799999999999     48.928190000000001
H      46.514099999999999     45.721899999999998     49.346820000000008
H      46.579099999999997     44.822899999999997     46.593680000000006
H      48.131299999999996     45.640900000000002     46.617190000000008
H      49.759100000000004     45.789700000000003     48.586690000000004
H      49.021999999999991     46.308900000000001     50.229579999999999
H      46.232799999999997     46.807000000000002     45.770420000000001
H      45.533100000000005     47.011100000000006     47.366259999999997
H      50.466899999999995     48.642999999999994     49.058360000000008
H      46.491900000000001     49.750999999999998     46.764409999999998
H      49.798400000000001     51.095100000000002     49.257159999999999
H      47.481799999999993     51.661200000000001     48.299440000000004
