6

C      47.262699999999995     48.090799999999994     48.004599999999989
C      48.537200000000006     48.171700000000001     48.081999999999994
H      46.593200000000003     47.828299999999999     48.856799999999993
H      46.608499999999999     47.872900000000001     46.892099999999999
H      48.997199999999999     48.007599999999996     49.107900000000001
H      49.406799999999997     48.135499999999993     47.259199999999993
