16

C      46.260949999999994     48.957199999999993     49.147399999999990
C      48.126650000000005     50.231200000000001     47.630199999999995
C      47.360250000000001     48.206999999999994     48.675999999999995
C      48.041949999999993     48.993499999999997     47.646000000000001
C      47.839850000000006     46.852899999999991     48.792700000000004
C      49.180349999999997     48.387400000000000     47.141100000000002
C      48.954050000000002     46.258700000000005     48.215600000000002
C      49.546349999999997     47.125199999999992     47.233399999999996
H      45.741449999999993     49.820899999999995     48.523099999999999
H      45.544649999999997     48.343699999999998     49.865900000000003
H      47.695249999999994     50.737799999999993     48.536799999999999
H      48.002450000000003     50.824900000000000     46.601300000000002
H      47.227449999999997     46.065100000000001     49.430199999999992
H      49.474849999999996     49.078499999999991     46.134099999999997
H      49.188949999999998     45.175100000000000     48.788000000000004
H      50.455350000000003     46.953400000000002     46.746299999999998
