20

C      49.665849999999992     46.963499999999996     45.380499999999998
C      46.160249999999998     46.737400000000001     48.508200000000002
C      47.999549999999999     48.649700000000003     50.451899999999995
C      47.039949999999997     47.520700000000012     48.152500000000003
C      47.921249999999993     48.180199999999999     48.982200000000006
C      47.205750000000002     47.578899999999997     46.698200000000000
C      49.017649999999996     48.891900000000000     48.248099999999994
C      48.622549999999997     47.497199999999999     46.291600000000003
C      49.437649999999998     48.443099999999994     47.023700000000005
H      47.148949999999999     48.968000000000011     50.999899999999997
H      48.762449999999994     49.510399999999997     50.563000000000002
H      46.429249999999996     46.146700000000003     49.346000000000004
H      50.468150000000001     46.542100000000005     46.048100000000005
H      49.791549999999994     47.821700000000000     44.727900000000005
H      45.531849999999999     46.349600000000002     47.814899999999994
H      48.387449999999994     47.884900000000002     51.272099999999995
H      46.455549999999995     47.464400000000005     45.854399999999998
H      49.307549999999999     49.853299999999997     48.762799999999999
H      46.757749999999994     48.640799999999992     47.041600000000003
H      50.315549999999995     48.866000000000000     46.844200000000001
