6

C      47.541949999999993     48.529399999999995     47.541149999999988
C      48.069049999999990     47.480600000000003     48.503650000000000
H      46.810749999999999     48.741100000000010     46.856050000000003
H      48.584049999999991     48.862800000000000     47.392350000000000
H      47.313749999999999     47.137200000000000     49.143949999999997
H      49.189250000000001     47.301700000000004     48.669649999999997
