71

C      46.156329499999984     46.537799999999997     46.914999999999992
C      47.023299500000007     45.843800000000002     46.024400000000014
C      47.127489499999996     45.119399999999999     52.455100000000002
C      50.659999499999998     43.861500000000007     49.464900000000014
C      48.355759500000005     44.438199999999995     52.369500000000002
C      50.081689500000010     43.591800000000006     50.637100000000004
C      46.001329499999997     46.012299999999996     48.247400000000013
C      47.842399499999999     44.665000000000006     46.454700000000003
C      46.439619499999992     45.412400000000005     51.077900000000014
C      49.767549500000001     44.072699999999998     48.386400000000009
C      48.843089500000005     43.845799999999997     51.161400000000000
C      46.045959499999995     44.601900000000001     48.630700000000004
C      47.272799500000005     44.213099999999997     47.730600000000010
C      46.603389499999992     44.470700000000008     50.105700000000013
C      48.305119500000004     43.846900000000005     48.742500000000007
C      47.957779500000001     43.924700000000001     50.010800000000003
C      45.360299499999996     46.882099999999994     49.311400000000006
C      45.473599499999992     46.396299999999997     50.713200000000001
C      49.193579499999998     44.443100000000001     46.196700000000007
C      45.689979499999993     47.759100000000004     46.615000000000009
C      45.821959500000006     47.791700000000006     45.147100000000009
C      46.711739500000007     47.251000000000005     44.118700000000004
C      47.497539500000002     46.313000000000002     44.708200000000005
C      44.680379500000001     48.340999999999994     47.552000000000007
C      44.530819499999993     47.895200000000003     48.847800000000007
C      48.451779500000001     45.359099999999998     43.922000000000011
C      49.392069500000005     44.658600000000007     44.704400000000007
C      46.872629500000002     45.922200000000004     53.599500000000006
C      46.310719500000005     47.111500000000007     53.043600000000012
C      45.369999499999992     47.249600000000001     51.966700000000003
C      46.724539500000006     47.510599999999997     42.603400000000008
C      46.002019500000003     48.780699999999996     42.044000000000011
C      44.517029499999992     48.548900000000003     52.154500000000013
C      49.966979499999994     43.363699999999994     44.014400000000009
C      44.683159500000002     49.655799999999999     51.067400000000006
C      47.505469500000004     49.675100000000000     51.726700000000008
C      45.232489500000000     50.854100000000003     51.933600000000013
C      46.659669499999993     50.768900000000002     52.295400000000001
C      44.456269500000005     51.890000000000001     52.396800000000013
C      47.115599500000002     51.727100000000007     53.229900000000001
C      45.072369499999994     52.677400000000006     53.470300000000009
C      46.375649499999994     52.588700000000003     53.982500000000002
H      49.003069499999995     44.825500000000005     53.259300000000010
H      50.752359500000011     43.064499999999995     51.638400000000004
H      45.382089499999992     48.719499999999996     44.794400000000010
H      43.904739500000005     49.043300000000002     47.329500000000010
H      43.626814499999995     48.410100000000000     49.282300000000006
H      48.498849500000006     45.435000000000002     42.944200000000009
H      46.005929499999993     47.468299999999999     53.995900000000006
H      47.184299499999995     45.824900000000000     54.646300000000011
H      46.441729499999994     48.924900000000008     41.061999999999998
H      46.222739500000003     49.800300000000007     42.501700000000014
H      44.091709499999993     49.067000000000007     53.161400000000000
H      43.484640499999998     48.097400000000007     52.100700000000003
H      50.641509499999998     42.779100000000000     44.596100000000007
H      48.918219499999992     42.822400000000002     43.553000000000011
H      50.444489500000003     43.360900000000001     42.905800000000013
H      52.343639499999995     43.367199999999997     48.061600000000013
H      44.802209500000004     48.600300000000004     42.270600000000002
H      45.488709499999999     49.370500000000007     50.292200000000008
H      47.111369499999995     49.213899999999995     50.759800000000013
H      47.249219499999995     48.799599999999998     52.321600000000004
H      48.651389499999993     49.595500000000001     51.903800000000004
H      43.522730499999994     51.762799999999999     52.012500000000003
H      48.096439500000002     51.419899999999998     53.326200000000014
H      44.071579499999999     53.220900000000000     53.908400000000000
H      46.950059499999995     53.025099999999995     54.938000000000002
H      43.614646499999992     49.957200000000000     50.640100000000004
N      50.131349499999999     44.127200000000002     47.095600000000005
O      47.311869500000000     46.891999999999996     41.844100000000012
S      52.515359500000002     43.986999999999995     49.234700000000004
