42

C      49.051749999999998     46.326299999999989     47.724849999999996
C      49.263950000000001     46.115899999999996     49.234750000000005
C      47.701450000000001     50.985199999999992     49.329149999999998
C      47.850850000000001     50.575299999999999     50.775550000000003
C      48.575550000000000     47.702399999999997     47.553150000000002
C      48.842149999999997     46.920599999999993     50.352150000000009
C      47.872850000000007     50.042599999999993     48.247950000000003
C      48.267249999999997     49.235799999999998     51.133550000000000
C      48.327549999999995     48.580199999999991     48.559150000000002
C      48.369350000000004     48.231499999999997     50.150849999999991
C      49.463649999999994     45.591099999999997     46.634450000000001
C      49.650250000000007     44.182599999999994     46.974150000000002
C      49.730449999999998     43.729999999999990     48.268950000000004
C      49.535050000000005     44.787399999999991     49.296050000000001
C      47.203750000000007     52.251800000000003     48.978349999999992
C      46.517549999999993     52.882499999999993     50.029850000000010
C      46.784849999999999     52.465399999999988     51.348950000000002
C      47.354350000000004     51.311899999999994     51.912350000000004
C      49.365649999999995     46.054199999999994     45.146550000000005
C      49.435350000000007     45.085299999999989     44.113650000000000
C      49.373250000000006     43.720999999999989     44.554650000000002
C      49.665650000000007     43.174399999999991     45.866950000000003
C      48.869449999999993     47.332999999999998     44.906350000000003
C      48.437850000000005     48.107399999999998     46.125550000000004
C      48.078449999999997     49.323399999999992     45.787250000000000
C      47.477150000000002     50.095199999999991     46.884450000000001
C      47.224150000000002     52.757399999999990     47.830349999999996
H      48.655149999999999     46.377799999999993     51.322149999999993
H      48.603550000000006     48.997999999999990     52.157450000000004
H      49.646449999999994     42.695299999999989     48.632350000000002
H      49.918249999999993     44.578699999999998     50.348450000000000
H      46.510650000000005     53.916100000000000     49.838749999999990
H      46.081750000000007     52.969099999999997     52.211950000000002
H      46.966349999999998     50.900300000000001     52.846450000000004
H      49.372949999999996     45.572199999999995     43.153549999999996
H      49.429650000000002     42.697199999999995     44.054850000000002
H      49.264450000000004     42.083900000000000     46.216349999999998
H      48.224550000000001     47.718899999999991     44.007750000000001
H      47.891449999999999     49.802099999999996     44.619349999999997
H      46.877649999999996     51.071199999999990     46.746450000000003
H      48.095649999999999     53.249899999999982     47.533950000000004
H      46.227049999999998     53.205199999999991     47.521149999999999
