60

C      46.398999999999987     43.721549999999993     48.700549999999993
C      45.724199999999996     44.951950000000004     48.653449999999999
C      45.643699999999995     45.691750000000006     49.842750000000002
C      46.118899999999996     45.187149999999995     51.078449999999997
C      46.719200000000001     43.922249999999998     51.050050000000006
C      46.863700000000009     43.193950000000001     49.923949999999998
C      46.962999999999994     43.070450000000001     47.377350000000000
C      47.764100000000013     46.197750000000006     46.736349999999995
C      49.876999999999995     51.845949999999995     50.405549999999998
C      47.755600000000001     47.500149999999998     46.091650000000001
C      50.006799999999998     51.954650000000008     49.062350000000002
C      48.246099999999998     45.933349999999997     48.027750000000005
C      49.371700000000004     50.735650000000000     51.147250000000007
C      47.963700000000003     48.640250000000002     46.952449999999999
C      49.222900000000010     50.866549999999997     48.410750000000000
C      48.725700000000003     48.337350000000008     51.349950000000000
C      48.493200000000002     47.102849999999997     48.733550000000001
C      49.239999999999995     49.506850000000007     50.454249999999995
C      48.637300000000010     48.414049999999996     48.265650000000001
C      49.112400000000008     49.564850000000000     49.089750000000002
C      47.848600000000005     49.921550000000003     46.547850000000004
C      48.501000000000005     50.960950000000004     47.128049999999995
C      47.202800000000011     45.177849999999999     45.789250000000003
C      47.645800000000008     45.291149999999995     44.426749999999998
C      47.845699999999994     46.594050000000003     43.833149999999996
C      47.911700000000010     47.733550000000001     44.692250000000001
C      49.147499999999994     51.157149999999994     52.666649999999997
C      49.522200000000012     48.067850000000000     52.476149999999997
C      50.149500000000003     53.115850000000002     48.108550000000001
C      46.697299999999998     43.880550000000007     46.146850000000001
C      48.623400000000004     46.734550000000006     42.506750000000004
C      49.400300000000001     46.822849999999995     53.357350000000004
H      48.368900000000011     46.129449999999999     41.683150000000005
H      44.825699999999998     45.005150000000008     47.857949999999995
H      45.075500000000005     46.582650000000008     50.015449999999994
H      47.341099999999997     43.493850000000002     51.926549999999999
H      47.328400000000002     42.291850000000004     50.057250000000003
H      46.950100000000006     45.392950000000006     52.869750000000003
H      48.153900000000007     42.773450000000004     47.507349999999995
H      46.518900000000002     43.399450000000002     45.186450000000001
H      50.091499999999996     52.615950000000005     47.123849999999997
H      48.112300000000005     44.844050000000003     48.401949999999999
H      47.574200000000005     48.332749999999997     51.146449999999994
H      47.227400000000003     49.981850000000001     45.747149999999998
H      48.325200000000009     51.969950000000004     46.676250000000003
H      47.648400000000009     44.401150000000008     43.712049999999998
H      48.265699999999995     48.617349999999995     44.428649999999998
H      49.982200000000006     51.888650000000005     53.181649999999998
H      50.499300000000005     48.053649999999998     52.614049999999999
H      48.706400000000002     46.984050000000003     49.913450000000005
H      49.304699999999997     53.980950000000000     48.230350000000001
H      51.174300000000002     53.387250000000002     48.316549999999999
H      46.521699999999996     42.019050000000000     47.223350000000003
H      48.533500000000004     47.071649999999998     54.022849999999998
H      50.141800000000003     46.880050000000004     54.316849999999995
H      48.584700000000012     47.730750000000008     42.291350000000001
H      50.216400000000007     52.589750000000002     50.906249999999993
H      49.518600000000006     45.788249999999998     52.683950000000003
O      46.293400000000005     45.764850000000003     52.224449999999997
O      48.293000000000006     50.489950000000000     53.242049999999999
