6

C      48.321799999999996     47.447399999999995     48.317299999999989
C      47.562999999999995     48.534599999999998     48.070000000000007
H      49.469799999999999     47.609499999999997     48.342399999999998
H      47.957100000000004     46.504899999999999     48.225000000000009
H      48.130699999999997     49.495100000000001     48.177000000000007
H      46.530200000000001     48.404499999999999     47.657600000000002
