6

C      48.139200000000002     48.563599999999994     48.055249999999994
C      48.248899999999999     47.177400000000006     47.856150000000000
H      48.215100000000000     49.436999999999998     47.460250000000002
H      48.206099999999999     48.683800000000005     49.154849999999996
H      47.751100000000001     46.859300000000005     46.845150000000004
H      47.926900000000010     46.563000000000002     48.691950000000006
