5

C      48.174749999999996     47.927401999999987     48.078599999999994
H      47.734650000000002     48.232001999999994     47.020499999999998
H      48.526050000000005     48.768612000000005     48.303499999999993
H      47.339550000000003     47.979721999999995     48.979500000000002
H      48.660449999999997     47.231387999999995     47.472999999999999
