6

C      48.400349999999996     47.333914999999990     47.531999999999989
C      48.536450000000002     48.268855000000002     48.643000000000001
H      48.300550000000001     47.339975000000010     46.296900000000001
H      47.463549999999998     46.784104999999997     47.140000000000001
H      48.104550000000003     49.215895000000003     48.619900000000001
H      48.445949999999996     47.606335000000016     49.703099999999999
