6

C      47.729149999999990     48.488849999999992     48.208949999999994
C      48.462250000000004     47.472250000000003     47.851650000000006
H      48.112349999999999     49.475449999999995     48.066550000000007
H      46.602950000000000     48.221350000000001     48.538250000000005
H      49.397050000000000     47.263649999999998     47.461749999999995
H      47.770750000000000     46.524550000000005     48.064350000000005
