6

C      47.245749999999994     48.299250000000001     48.207549999999998
C      48.424149999999997     47.611349999999995     47.721050000000005
H      47.018950000000004     49.375350000000005     47.767750000000007
H      47.265850000000000     47.842050000000008     49.303650000000005
H      48.572450000000003     46.624649999999995     47.953850000000003
H      48.981049999999996     47.774449999999995     46.696349999999995
