5

C      47.894374999999997     48.183449999999986     47.942899999999995
H      47.698584999999994     48.829650000000001     47.150400000000005
H      47.686414999999997     48.729150000000004     48.849599999999995
H      48.834905000000006     47.591149999999999     47.928100000000001
H      47.165094999999994     47.170349999999999     48.005700000000004
