22

C      50.973449999999993     46.546219999999991     46.711499999999994
C      50.428049999999999     47.744750000000003     46.725699999999989
C      49.920349999999999     48.937120000000000     46.744500000000002
C      48.424950000000003     49.143689999999999     46.743200000000002
C      48.352750000000000     48.488520000000001     49.552199999999999
C      47.601349999999996     47.991269999999993     47.237600000000000
C      47.185949999999998     47.922239999999995     48.670299999999997
C      46.617849999999997     47.423619999999993     46.351900000000001
C      46.104549999999996     47.146230000000003     49.079599999999999
C      45.267550000000000     47.173639999999999     46.945799999999998
C      45.022849999999998     46.824189999999994     48.111399999999989
H      50.355550000000001     45.905600000000000     47.576999999999998
H      52.047550000000001     46.410409999999999     46.168199999999999
H      50.567949999999996     49.870060000000002     47.040900000000001
H      49.333550000000002     48.144060000000003     49.269799999999989
H      48.072749999999999     50.094400000000000     46.459399999999995
H      48.644350000000003     48.561739999999993     50.666100000000000
H      48.348149999999997     49.575150000000001     49.411799999999999
H      46.073050000000002     47.647260000000010     45.333900000000000
H      45.699950000000001     47.201280000000004     50.230399999999989
H      44.542049999999996     46.779490000000003     46.125699999999995
H      43.952449999999999     46.795999999999999     48.460499999999996
