62

C      47.334149999999994     46.804949999999991     49.966594999999998
C      48.476450000000000     46.625449999999994     50.692795000000004
C      49.317549999999997     44.820850000000000     45.677594999999997
C      50.648150000000001     44.704050000000002     46.415594999999996
C      47.141649999999998     46.385649999999998     48.502094999999997
C      49.717849999999999     45.911650000000002     50.051995000000005
C      48.190849999999998     45.299050000000001     46.375694999999993
C      50.673150000000007     45.409450000000000     47.700395000000000
C      48.271649999999994     45.744250000000001     47.766994999999994
C      49.474649999999997     45.740549999999999     48.439795000000004
C      46.457250000000002     47.887650000000001     50.330494999999999
C      46.972149999999999     49.159050000000001     50.966094999999996
C      48.176050000000004     49.057949999999998     51.714594999999989
C      48.699150000000003     47.704149999999991     51.747694999999993
C      49.563649999999996     44.745249999999999     44.271974999999998
C      50.750549999999990     44.758949999999999     43.522475000000000
C      51.903149999999997     44.939850000000000     44.318834999999993
C      51.843850000000003     44.576850000000000     45.724495000000005
C      45.194749999999999     47.928750000000001     49.463295000000002
C      44.543350000000004     49.272950000000002     49.387394999999998
C      44.986649999999997     50.562649999999998     49.888294999999999
C      46.136849999999995     50.303449999999991     50.770094999999998
C      44.937849999999997     47.318450000000006     48.224495000000005
C      46.079449999999994     46.717949999999995     47.514894999999996
C      45.780150000000006     46.094850000000001     46.301995000000005
C      46.951449999999994     45.623249999999999     45.625595000000004
C      48.376549999999995     45.185949999999998     43.339955000000003
C      47.036150000000006     45.213850000000001     44.162954999999997
C      50.995149999999995     46.491049999999994     50.510895000000005
C      50.911749999999998     46.401549999999993     51.893794999999997
C      49.930549999999997     47.535049999999998     52.414294999999996
C      52.182549999999992     45.301650000000002     47.920794999999998
C      52.950350000000000     44.514049999999997     46.745694999999998
C      44.415350000000004     51.935049999999997     49.881794999999997
C      43.265850000000000     49.137749999999997     48.616095000000001
C      49.216849999999994     50.048849999999995     52.135294999999999
C      43.552650000000000     47.698649999999994     47.853494999999995
H      46.343450000000004     51.147349999999996     51.345294999999993
H      44.725949999999997     45.962550000000000     45.900295000000000
H      48.475650000000002     44.553449999999998     42.532605000000004
H      45.985450000000000     45.376950000000001     43.622084999999998
H      51.852050000000006     46.887049999999995     49.995694999999998
H      52.359549999999999     46.296749999999996     48.173995000000005
H      49.633249999999990     44.719850000000001     50.504194999999996
H      51.971249999999998     46.386550000000000     52.394494999999992
H      49.395949999999999     47.544750000000001     53.467394999999996
H      53.229349999999997     43.241549999999997     47.108294999999998
H      52.679950000000005     45.035449999999997     48.998395000000002
H      53.753749999999997     45.355049999999999     46.622095000000002
H      44.746150000000000     52.758450000000003     50.485894999999999
H      53.022449999999992     45.797849999999997     43.192914999999999
H      43.543549999999996     48.009250000000002     46.637794999999997
H      43.420550000000006     49.963149999999992     47.902895000000001
H      49.167850000000001     50.384049999999995     53.220994999999988
H      49.836749999999995     50.503949999999996     51.307794999999999
H      42.782250000000005     46.731150000000000     47.949195000000003
H      42.246250000000003     49.486250000000005     49.115494999999996
H      50.843850000000003     45.449149999999996     42.614035000000001
H      48.308750000000003     46.183850000000000     42.725165000000004
H      46.979050000000001     44.146049999999995     44.335804999999993
O      43.569649999999996     52.095549999999996     49.096895000000004
O      53.132450000000006     45.550449999999998     44.050515000000004
