17

C      46.484299999999998     49.009449999999994     47.287349999999989
C      48.633900000000011     48.192750000000004     45.696850000000005
C      47.424000000000007     48.210050000000003     47.779850000000003
C      48.751000000000005     47.976150000000004     47.143650000000001
C      47.012800000000006     47.172650000000004     48.960850000000001
C      49.678100000000001     46.965850000000003     47.549550000000004
C      48.263900000000007     46.768950000000004     49.631850000000007
C      49.446100000000001     46.659750000000003     48.941449999999996
H      48.276100000000000     46.861850000000004     50.921950000000002
H      46.625600000000006     49.871650000000002     46.546450000000000
H      45.475600000000000     48.582050000000002     47.372450000000008
H      47.825299999999999     48.587350000000001     45.312450000000005
H      49.615800000000007     48.388950000000001     45.078049999999998
H      46.383200000000002     47.499150000000000     49.746249999999996
H      50.524400000000000     46.707450000000001     46.908049999999996
H      46.594600000000000     46.165950000000002     48.411250000000003
H      50.244900000000001     46.128349999999998     49.434350000000002
