6

C      48.489799999999988     48.196099999999987     47.528700000000001
C      48.135899999999992     47.324799999999996     48.567600000000006
H      47.731699999999989     48.825999999999993     46.928699999999999
H      49.071200000000005     49.166800000000002     47.313200000000002
H      46.928799999999995     47.487599999999993     48.713500000000003
H      48.880499999999998     46.833199999999998     49.071300000000001
