52

C      47.909199999999991     46.522509999999997     48.139949999999985
C      46.966700000000003     46.479510000000005     47.049250000000001
C      45.863699999999994     50.675410000000007     49.739750000000001
C      45.284099999999995     50.687710000000003     48.350049999999996
C      47.758499999999998     47.495910000000002     49.247050000000002
C      46.092700000000001     47.625110000000006     46.943749999999994
C      46.542000000000002     49.573110000000007     50.133849999999995
C      45.276399999999995     49.699210000000001     47.382449999999992
C      46.848700000000001     48.518710000000006     49.190550000000002
C      46.002600000000001     48.642610000000012     47.933849999999993
C      48.861099999999993     45.497210000000003     48.399450000000002
C      49.185299999999998     44.638010000000001     47.262549999999990
C      47.963200000000001     44.320910000000005     46.503349999999998
C      47.037800000000004     45.447310000000009     46.049149999999997
C      45.003599999999999     52.630010000000006     50.357249999999993
C      44.525199999999998     52.908110000000001     49.044849999999997
C      44.551000000000002     51.955810000000007     48.011349999999993
C      50.078999999999994     45.887010000000004     49.162349999999989
C      51.337299999999999     45.518610000000002     48.881349999999998
C      51.451099999999997     44.415910000000004     48.081449999999990
C      50.425600000000003     43.923410000000004     47.143949999999990
C      48.462699999999998     47.144910000000003     50.539349999999999
C      49.943699999999993     46.971310000000003     50.244749999999996
C      45.789800000000000     47.676410000000004     45.437950000000001
C      44.511499999999998     48.306810000000006     45.276849999999996
C      45.893599999999999     45.069810000000004     45.230649999999997
C      47.538699999999999     43.116620000000005     46.257949999999994
C      45.938800000000001     43.724110000000003     44.911249999999995
C      50.835099999999997     43.331910000000001     45.807549999999992
H      44.276100000000000     48.407310000000003     44.203949999999992
H      43.767099999999999     53.824610000000000     48.589549999999988
H      44.316599999999994     52.185510000000001     46.966249999999988
H      52.277500000000003     46.020810000000004     49.447549999999993
H      52.331199999999995     43.640310000000007     48.012549999999990
H      48.250600000000006     48.019210000000008     51.232949999999988
H      48.051400000000001     46.236610000000006     50.944949999999992
H      50.380099999999999     47.847810000000003     49.577749999999995
H      50.611999999999995     46.824110000000012     51.092649999999992
H      46.374800000000000     47.501910000000002     44.505949999999999
H      43.668800000000005     47.606210000000011     45.835449999999994
H      45.251899999999999     45.851210000000002     45.083449999999999
H      48.142099999999999     42.175390000000000     46.541049999999998
H      45.123500000000000     43.153250000000007     44.285449999999997
H      51.945899999999995     43.578610000000005     45.638249999999999
H      50.504400000000004     44.211710000000004     45.182549999999992
H      50.404600000000002     42.281590000000001     45.740849999999995
H      44.835400000000000     53.130510000000008     51.335349999999991
H      46.593000000000004     50.435710000000007     51.796050000000008
N      45.578199999999995     51.582210000000011     50.722549999999998
O      46.680099999999996     42.697220000000009     45.404949999999999
O      46.719300000000004     49.397810000000000     51.506149999999991
O      44.590000000000003     49.709210000000006     46.059950000000001
