16

C      48.577954999999989     49.126949999999987     46.079999999999998
C      49.172654999999992     47.944350000000000     46.547399999999996
C      47.443155000000004     49.614750000000001     46.870400000000004
C      48.443955000000003     47.615650000000002     47.818700000000007
C      47.403134999999992     48.588049999999996     47.983599999999996
C      48.688155000000009     46.642449999999997     48.909099999999995
C      46.585224999999994     48.717150000000004     49.150099999999995
C      47.995004999999992     46.866849999999999     50.028599999999997
C      46.749144999999999     47.701250000000002     50.123900000000006
H      48.297454999999999     46.186049999999994     50.885999999999996
H      48.938455000000005     49.524850000000001     45.114000000000004
H      50.037855000000008     47.516350000000003     46.002799999999993
H      46.784935000000004     50.314549999999997     46.381299999999996
H      49.387554999999992     45.685450000000003     48.915300000000002
H      45.978124999999991     49.516750000000002     49.264600000000002
H      45.962144999999992     47.619850000000000     50.846900000000005
