22

C      47.129299999999986     45.806899999999992     48.907649999999997
C      47.498199999999997     45.425100000000000     47.436850000000007
C      46.363399999999999     47.234600000000000     49.062049999999999
C      48.756799999999998     46.286799999999999     47.110950000000003
C      47.418100000000010     48.320099999999996     48.545749999999998
C      48.300400000000010     47.683300000000003     47.623649999999998
C      47.516900000000007     49.732300000000009     48.794950000000000
C      49.513300000000001     48.406000000000006     47.331649999999996
C      48.632800000000003     50.424999999999997     48.432150000000007
C      49.783199999999994     49.708500000000001     47.827349999999996
H      48.071899999999999     45.601100000000002     49.582850000000008
H      46.286400000000000     45.418900000000008     49.309250000000006
H      46.513400000000004     45.431200000000004     46.832149999999999
H      47.618899999999996     44.490499999999997     47.425049999999999
H      46.380799999999994     47.607600000000005     50.126750000000001
H      45.340199999999996     47.475999999999999     48.770650000000003
H      49.059600000000003     46.277700000000010     45.873249999999999
H      49.495500000000007     45.686700000000002     47.615150000000000
H      46.715800000000002     50.323400000000007     49.493250000000003
H      50.481200000000001     47.818200000000004     47.052650000000000
H      48.714000000000013     51.509500000000003     48.418350000000004
H      50.659800000000004     50.467500000000001     47.704949999999997
