34

C      48.611799999999995     47.608249999999984     47.991999999999990
C      46.042900000000003     45.541249999999991     47.544499999999999
C      48.270600000000002     46.192249999999994     48.593299999999985
C      47.120000000000005     45.335049999999988     48.661399999999986
C      49.133799999999994     45.971749999999993     49.704399999999993
C      46.835899999999995     44.519849999999991     49.798099999999991
C      49.176299999999998     44.867449999999991     50.646799999999985
C      47.988699999999994     44.150149999999989     50.507499999999993
C      50.050899999999999     51.553049999999992     48.021000000000001
C      48.757300000000001     52.020149999999987     47.359200000000001
C      48.900599999999997     48.874649999999981     47.718299999999999
C      48.211500000000001     50.933549999999990     46.438999999999993
C      48.284999999999997     49.487549999999992     46.490299999999991
C      47.303100000000001     51.738749999999989     45.680799999999991
C      47.395600000000002     48.674449999999986     45.737399999999994
C      46.278499999999994     50.921349999999997     45.254800000000003
C      46.471999999999994     49.508349999999993     45.232799999999997
H      45.234300000000005     46.364949999999993     47.308700000000002
H      49.066199999999995     52.777350000000006     46.591799999999992
H      45.327200000000005     44.915849999999992     47.919399999999996
H      46.321399999999997     44.887649999999994     46.590800000000002
H      49.760300000000001     46.696549999999995     49.424299999999988
H      45.865600000000001     44.010749999999994     49.979299999999995
H      49.910899999999998     44.364949999999993     51.413100000000000
H      47.589399999999998     43.222649999999994     51.038100000000000
H      50.525099999999995     52.344450000000002     47.535799999999995
H      50.317399999999992     51.248049999999985     49.069000000000003
H      50.765699999999995     50.597549999999991     47.425500000000000
H      47.950900000000004     52.681849999999997     47.772599999999997
H      49.381799999999998     49.334249999999990     48.595599999999990
H      47.330600000000004     52.702249999999992     45.573999999999998
H      47.357600000000005     47.582149999999992     45.759900000000002
H      45.484399999999994     51.410549999999994     45.052099999999996
H      45.874099999999999     48.801549999999985     44.586900000000000
