6

C      48.556949999999993     47.844600000000000     48.166499999999992
C      47.386449999999996     48.081600000000002     47.654699999999998
H      49.398949999999999     48.382200000000005     48.497399999999999
H      48.571950000000001     46.797800000000002     48.576200000000000
H      46.601050000000001     47.418399999999998     47.442799999999998
H      47.433350000000004     49.202199999999998     47.423800000000000
