6

C      47.837399999999995     47.982799999999990     47.557299999999991
C      47.792700000000004     48.101399999999991     49.002600000000001
H      47.524400000000000     47.204699999999995     46.841899999999995
H      48.475600000000000     48.756099999999989     47.080300000000001
H      48.101700000000008     47.032399999999996     49.152999999999999
H      48.079700000000003     48.967600000000004     49.158100000000005
