6

C      47.865499999999997     48.326299999999996     48.669499999999992
C      48.268300000000004     47.652900000000002     47.538399999999996
H      47.150500000000001     47.745999999999995     49.311199999999999
H      48.425699999999999     49.315399999999997     48.792800000000000
H      48.849499999999999     48.248899999999992     46.688800000000001
H      47.936700000000002     46.684600000000003     47.462499999999999
