5

C      48.048799999999993     47.828049999999990     48.163099999999986
H      48.917800000000000     47.506750000000004     48.761600000000001
H      48.430300000000003     47.325350000000000     47.238399999999999
H      47.653500000000008     48.795650000000002     48.519499999999994
H      47.082200000000000     47.204349999999998     48.334699999999998
