18

C      49.997299999999996     48.950599999999994     48.517449999999990
C      49.195900000000002     46.299900000000001     47.149850000000001
C      48.490000000000002     48.529299999999999     48.309049999999999
C      48.251100000000001     47.431500000000000     47.542349999999999
C      47.617299999999993     49.750300000000003     48.281549999999996
C      46.961300000000001     47.238199999999999     46.912649999999999
C      46.351499999999994     49.564799999999998     47.843350000000001
C      46.055100000000003     48.205199999999998     47.342149999999997
H      50.764000000000003     48.648099999999999     47.792549999999999
H      48.529499999999992     45.259200000000000     47.075850000000003
H      50.093100000000000     50.134599999999999     48.719049999999996
H      49.874800000000000     46.820000000000000     46.493049999999997
H      49.767499999999991     45.747599999999998     47.969850000000001
H      47.862400000000001     50.740800000000000     48.699950000000001
H      46.500399999999992     46.433300000000003     46.582549999999998
H      45.542899999999996     50.475900000000003     48.138050000000000
H      45.235999999999997     48.127900000000004     46.420349999999999
H      50.072299999999991     48.590699999999998     49.579650000000001
