6

C      48.052308999999994     47.367134999999990     48.366949999999989
C      48.068089000000001     48.559154999999997     47.910650000000004
H      47.175639000000004     46.934694999999998     48.745350000000002
H      49.015388999999999     47.020485000000001     48.476550000000003
H      48.882939000000007     49.065305000000002     47.254649999999998
H      46.984611000000001     48.914605000000002     47.995549999999994
