6

C      48.266199999999991     47.601199999999992     48.239249999999998
C      47.512299999999996     48.308700000000009     47.508150000000001
H      49.155000000000001     46.850800000000000     47.980950000000007
H      48.356099999999998     47.539899999999996     49.457449999999994
H      46.844999999999999     49.149200000000000     47.991349999999997
H      47.404200000000003     48.427199999999992     46.542550000000006
