18

C      46.033254999999997     47.060899999999997     48.855549999999994
C      48.324255000000001     46.025200000000005     46.899249999999995
C      47.298255000000005     47.974199999999996     48.569350000000000
C      48.330854999999993     47.404900000000012     47.788149999999987
C      47.188555000000001     49.191800000000001     49.378349999999983
C      49.501354999999997     48.162200000000006     47.813149999999993
C      48.463655000000003     49.851300000000009     49.263249999999999
C      49.642054999999992     49.343100000000007     48.596750000000000
H      45.748865000000002     47.083900000000014     50.035550000000001
H      48.931255000000000     46.308700000000002     45.964449999999999
H      46.196955000000003     45.987000000000002     48.715049999999991
H      45.259245000000000     47.311400000000006     48.204549999999998
H      47.485355000000006     45.900900000000007     46.505249999999990
H      48.992955000000002     45.341800000000006     47.478849999999994
H      46.266255000000001     49.609099999999998     49.824950000000001
H      50.411555000000000     47.706000000000003     47.389249999999990
H      48.876455000000000     50.658199999999994     50.014949999999999
H      50.740755000000000     49.791800000000002     48.763649999999998
