17

C      47.921449999999993     46.352199999999989     46.918699999999994
C      49.507950000000001     48.839300000000009     46.568599999999989
C      47.523649999999996     47.358599999999996     47.544799999999995
C      48.408949999999997     48.409900000000007     47.544899999999998
C      46.415749999999996     47.277400000000000     48.353200000000001
C      48.040950000000002     49.695400000000006     48.288600000000002
C      46.465049999999998     48.289800000000000     49.403799999999990
C      47.350450000000002     49.323300000000003     49.457200000000000
H      48.827350000000003     46.692999999999998     46.467199999999991
H      47.941949999999999     45.334900000000005     47.229199999999992
H      49.109550000000006     48.309899999999999     45.538600000000002
H      50.470350000000003     48.242699999999999     47.132599999999996
H      45.529649999999997     47.345700000000008     47.844899999999996
H      48.601250000000000     50.665099999999995     48.031899999999993
H      45.641150000000003     48.220300000000009     50.182800000000000
H      47.419050000000006     50.018900000000002     50.461399999999998
H      50.165349999999997     49.736100000000008     46.360799999999998
