17

C      49.567249999999994     49.797799999999995     45.985349999999997
C      46.947249999999997     46.706299999999999     46.121949999999998
C      48.638850000000005     49.490699999999990     46.730549999999994
C      47.137250000000002     47.564999999999998     47.376649999999998
C      47.512349999999998     49.010999999999996     47.525549999999996
C      46.623350000000002     46.958199999999991     48.455149999999989
C      47.148449999999997     49.582700000000003     48.777950000000004
C      46.245950000000001     47.595599999999990     49.714150000000004
C      46.225949999999997     48.974899999999991     49.655649999999994
H      46.252150000000000     45.902799999999999     48.170649999999995
H      47.831150000000001     46.787199999999999     45.406049999999993
H      46.906250000000000     45.456400000000002     46.371949999999998
H      50.269649999999999     50.276799999999994     45.373450000000005
H      45.730350000000001     46.727800000000002     45.672349999999994
H      47.651150000000001     50.543599999999998     48.998949999999994
H      45.872850000000000     47.031999999999996     50.626549999999995
H      45.961050000000000     49.430399999999992     50.494749999999996
