22

C      47.319849999999988     46.798899999999989     45.819899999999997
C      45.986350000000002     47.233299999999993     46.302899999999994
C      48.179850000000002     48.206799999999994     45.969099999999997
C      45.988849999999999     48.033899999999996     47.792300000000012
C      48.460949999999997     48.496699999999997     47.403700000000001
C      47.332149999999999     48.549499999999988     48.210700000000010
C      49.684049999999999     49.118100000000005     47.974700000000013
C      47.293350000000004     48.661399999999993     49.705800000000011
C      49.730250000000012     49.386799999999987     49.336599999999997
C      48.516550000000009     49.215700000000005     50.221299999999999
H      48.717749999999995     49.222100000000005     51.180499999999995
H      47.682149999999993     46.000200000000000     46.480900000000005
H      47.220050000000001     46.603999999999999     44.819500000000005
H      45.343149999999994     47.821499999999993     45.678000000000004
H      45.178650000000005     46.408899999999996     46.302400000000006
H      49.361850000000004     48.220999999999997     45.631000000000000
H      47.375349999999997     49.010599999999990     45.544300000000000
H      45.526650000000004     47.294100000000000     48.474899999999998
H      50.683150000000012     49.036499999999997     47.420900000000003
H      46.521050000000002     48.253499999999995     50.305300000000010
H      50.821349999999995     49.999800000000000     49.621000000000009
H      45.476849999999999     49.009699999999995     47.483399999999996
