5

C      47.738349999999990     47.937349999999995     47.850049999999996
H      47.660049999999998     48.666550000000001     48.724250000000005
H      47.483850000000004     48.982050000000001     47.275749999999995
H      47.250749999999996     47.017949999999999     47.346849999999996
H      48.749250000000004     47.807450000000003     48.102550000000001
