16

C      48.250441949999995     47.794849999999997     45.899399999999986
C      47.455071949999997     46.782450000000004     46.532600000000002
C      49.093921950000002     48.568850000000005     46.752899999999997
C      48.608311950000001     48.498950000000001     48.154600000000002
C      47.811591950000000     47.282150000000001     47.880299999999991
C      48.508591950000003     49.325350000000007     49.342699999999994
C      47.387117949999997     46.783549999999998     49.190899999999999
C      47.638271949999996     48.923450000000010     50.387700000000009
C      47.193368950000000     47.604649999999999     50.267399999999995
H      48.276881949999996     47.994850000000007     44.837099999999992
H      46.494818049999999     46.303550000000001     46.153199999999998
H      49.505181950000001     49.502949999999991     46.414599999999993
H      48.944121950000003     50.282950000000000     49.358199999999997
H      47.038578950000002     45.717050000000000     49.140100000000004
H      47.294285950000003     49.512349999999998     51.162900000000008
H      46.550713950000002     47.165750000000003     51.049000000000007
