6

C      48.538849999999996     48.133149999999993     48.268149999999991
C      47.388649999999998     47.457050000000002     47.986950000000000
H      48.822050000000004     48.693449999999999     49.153349999999996
H      49.486949999999993     47.868549999999999     47.802749999999996
H      47.109150000000000     47.306550000000001     46.846650000000004
H      46.513050000000007     47.730850000000004     48.563750000000006
