5

C      48.075400000000002     47.886599999999987     47.884099999999989
H      47.207800000000006     48.466799999999999     48.269399999999997
H      47.953800000000001     47.638700000000007     48.965499999999999
H      48.792199999999994     48.667600000000000     47.415500000000002
H      47.714399999999998     47.332400000000000     47.034500000000001
