7

C      48.411149999999992     46.979899999999986     48.572199999999995
C      47.911949999999997     48.090999999999994     47.977800000000002
C      47.379650000000005     49.191800000000001     47.584900000000005
H      47.042149999999999     49.843299999999999     48.411900000000003
H      48.470750000000002     46.156700000000001     47.778899999999993
H      48.957850000000001     47.077900000000000     49.463499999999996
H      47.640350000000005     49.552800000000005     46.536500000000004
