5

C      47.918349999999990     48.026449999999997     48.401649999999997
H      47.460049999999995     48.856049999999996     48.028649999999999
H      46.976249999999993     47.143950000000004     48.659350000000003
H      48.168450000000007     47.313050000000004     47.340649999999997
H      49.023750000000007     47.856849999999994     48.358150000000002
