6

C      47.732050000000001     48.071349999999995     47.324299999999994
C      48.241250000000008     47.953650000000003     48.627499999999998
H      47.428650000000005     47.303550000000001     46.649100000000004
H      48.011550000000000     48.946649999999998     46.566800000000001
H      48.202449999999999     47.053350000000002     49.433199999999999
H      48.571349999999995     48.634550000000004     49.431200000000004
