23

C      46.583299999999987     47.058129999999991     49.206899999999990
C      46.145099999999999     49.476429999999986     50.014500000000012
C      46.547399999999996     48.472629999999995     49.032499999999999
C      44.799899999999994     49.590129999999995     50.360500000000002
C      47.447199999999995     46.377359999999996     48.210099999999997
C      49.659599999999998     47.416829999999997     48.589200000000005
C      48.692400000000006     47.201129999999999     47.574900000000000
C      50.861300000000000     48.172429999999999     48.291499999999999
C      48.876800000000003     47.539929999999991     46.154799999999994
C      50.930000000000007     48.547729999999994     46.947599999999994
C      49.943200000000004     48.329729999999991     45.889700000000005
H      45.879000000000005     46.714729999999996     49.799599999999998
H      44.351799999999997     50.563830000000003     50.906599999999997
H      46.870000000000005     50.400630000000000     50.341300000000004
H      47.711799999999997     45.436169999999997     48.450800000000001
H      44.107699999999994     48.882129999999997     50.231700000000004
H      47.144800000000004     48.713929999999998     48.135499999999993
H      49.497600000000006     46.994729999999997     49.461399999999998
H      46.878900000000002     46.530349999999991     47.139600000000002
H      51.529100000000000     48.488530000000004     49.065600000000003
H      48.162199999999999     47.669729999999994     45.261099999999999
H      51.892300000000006     49.068329999999996     47.032600000000002
H      50.231899999999996     48.632729999999988     45.093400000000003
