16

C      46.291149999999988     46.806259999999995     46.970149999999997
C      46.403449999999999     46.815360000000005     48.483050000000006
C      47.532950000000007     46.994460000000004     46.265850000000000
C      47.710349999999998     47.444850000000010     48.719549999999998
C      48.202750000000002     47.652600000000000     47.351350000000011
C      48.408850000000008     47.944520000000004     49.777250000000009
C      49.482750000000003     48.152370000000005     47.118850000000009
C      49.282249999999998     49.023040000000002     49.631950000000003
C      49.766650000000006     49.053310000000003     48.198350000000005
H      45.213649999999994     46.602409999999999     46.704950000000004
H      45.850649999999995     46.086829999999999     49.125349999999997
H      47.767749999999999     47.054590000000005     45.169049999999999
H      48.300750000000001     47.624910000000000     50.830950000000001
H      49.948150000000005     47.974200000000003     46.152050000000003
H      49.376749999999994     49.913170000000001     50.315849999999998
H      50.786350000000006     49.518930000000005     48.246050000000004
