19

C      47.429449999999996     49.768599999999992     50.137549999999990
C      45.844350000000006     48.098600000000005     45.552149999999997
C      47.220950000000002     48.561700000000002     49.728549999999998
C      46.739750000000001     47.945899999999995     46.479750000000003
C      47.924049999999994     47.517200000000003     48.810949999999998
C      47.684049999999999     47.364699999999999     47.397950000000002
C      48.743250000000003     46.638800000000003     49.573650000000001
C      48.721150000000009     46.632599999999996     46.739849999999997
C      49.774550000000005     45.950400000000002     48.858150000000002
C      49.769250000000014     45.977900000000005     47.459150000000001
H      45.245450000000005     47.244199999999992     45.179250000000003
H      45.559250000000006     49.118200000000002     45.103949999999998
H      46.765750000000004     50.166700000000006     50.896050000000002
H      48.254650000000005     50.567599999999999     50.171050000000001
H      46.228950000000005     48.431200000000004     50.276850000000003
H      48.664050000000003     46.364800000000002     50.838450000000002
H      49.018950000000004     46.938699999999997     45.803550000000001
H      50.643150000000006     45.432400000000001     49.394649999999999
H      50.754549999999995     45.619100000000003     47.060250000000003
