17

C      46.815249999999992     46.199629999999999     47.566799999999986
C      49.167250000000003     47.185160000000003     46.376399999999997
C      47.617750000000008     47.455250000000007     47.838799999999999
C      48.711550000000003     48.027520000000003     47.103400000000001
C      47.340949999999999     48.300920000000012     48.960199999999993
C      49.439349999999997     49.106250000000010     47.713199999999993
C      47.907650000000004     49.534250000000007     49.545499999999997
C      49.062049999999999     49.997549999999997     48.864500000000000
H      47.104350000000004     45.130450000000003     47.899799999999992
H      45.525449999999999     46.372369999999997     47.492500000000000
H      48.740649999999995     46.939070000000008     45.298700000000004
H      46.708849999999998     48.039450000000009     49.814999999999991
H      50.474550000000001     49.659350000000011     47.317900000000002
H      47.687449999999991     50.004049999999999     50.701299999999996
H      49.679349999999992     50.869549999999997     49.531299999999995
H      50.353950000000005     46.832640000000005     46.460099999999990
H      46.787849999999999     45.886750000000006     46.469599999999993
