6

C      47.477399999999989     48.198849999999993     48.498899999999992
C      48.166300000000007     47.708950000000002     47.407699999999998
H      48.145499999999998     46.710950000000004     47.047499999999992
H      48.522600000000011     48.589250000000000     46.501600000000003
H      47.512299999999996     49.289049999999996     48.240400000000001
H      47.483700000000013     47.670049999999996     49.498399999999997
