12

C      47.703399999999988     48.883649999999989     47.764449999999997
C      47.697400000000002     47.397849999999998     48.134350000000005
C      48.524599999999992     50.041850000000004     48.461949999999995
C      47.134799999999998     46.028449999999999     47.874950000000005
H      46.626999999999995     49.046949999999988     47.656050000000000
H      46.992699999999999     45.442349999999998     46.862950000000005
H      48.375100000000003     47.257449999999999     48.989350000000009
H      47.739699999999999     48.773949999999999     46.749450000000003
H      49.373000000000005     50.303850000000004     47.885650000000005
H      47.708399999999997     50.787050000000001     48.663150000000009
H      49.207999999999998     49.639850000000003     49.250549999999997
H      47.511099999999999     45.212949999999999     48.585249999999995
