21

C      46.395549999999993     49.070449999999994     46.411899999999996
C      46.800049999999999     49.863749999999996     45.154400000000003
C      46.912649999999999     47.749049999999997     46.616700000000002
C      49.563250000000004     46.041950000000000     47.373900000000006
C      47.372450000000001     47.443150000000003     47.865899999999996
C      48.520450000000004     46.497649999999993     48.370199999999997
C      47.035150000000002     48.442149999999998     48.895499999999998
C      49.104150000000004     46.514650000000003     49.636000000000003
C      47.481150000000000     48.435850000000002     50.245900000000006
C      48.406150000000004     47.410349999999994     50.486999999999995
H      45.467050000000000     49.610149999999990     46.828199999999995
H      47.137349999999998     49.261550000000000     44.614300000000000
H      47.193249999999992     50.944950000000006     45.107399999999998
H      47.222750000000005     47.372950000000003     45.558100000000003
H      49.153550000000003     45.701849999999993     46.355600000000003
H      50.532950000000000     46.199950000000001     47.622600000000006
H      49.812449999999998     45.055049999999994     47.839500000000001
H      45.966050000000003     48.578749999999999     48.544800000000009
H      50.346050000000005     46.439350000000005     49.560699999999997
H      46.990949999999998     49.010350000000003     51.385700000000000
H      48.955050000000000     47.337850000000003     51.357399999999998
