19

C      46.811949999999996     49.012399999999992     47.096899999999991
C      49.123849999999997     47.664900000000003     45.574700000000000
C      47.750149999999998     48.234999999999999     47.984199999999994
C      48.789849999999994     47.743000000000002     47.080399999999997
C      47.975149999999992     48.518700000000003     49.390599999999999
C      49.772649999999992     46.786400000000000     47.653399999999998
C      49.151249999999997     47.843299999999999     49.948799999999999
C      49.849150000000002     47.005499999999998     49.049099999999989
H      45.656249999999993     49.280000000000001     48.713500000000003
H      46.775649999999992     48.423500000000004     46.216899999999995
H      47.215650000000004     50.081299999999999     46.587599999999995
H      48.299349999999997     48.463700000000003     45.113599999999998
H      50.340049999999998     47.837200000000003     45.887099999999997
H      47.526350000000001     49.066500000000005     50.197499999999998
H      50.239650000000005     45.918700000000001     46.959799999999994
H      48.983049999999999     47.561000000000000     50.886400000000002
H      50.425450000000005     46.549700000000001     49.756300000000003
H      48.819150000000000     46.623600000000003     45.275799999999997
O      45.574549999999995     49.352000000000004     47.690000000000005
