
     RDKit          3D

238264  0  0  0  0  0  0  0  0999 V2000
    1.8640    4.7720    3.0650 C   0  0  0  0  0  0  0  0  0  0  0  0
    2.0280    5.0670    1.6950 C   0  0  0  0  0  0  0  0  0  0  0  0
   -1.6490    8.3410    3.5500 C   0  0  0  0  0  0  0  0  0  0  0  0
   -1.5730    8.5600    2.2020 C   0  0  0  0  0  0  0  0  0  0  0  0
    0.9570    5.5340    3.8700 C   0  0  0  0  0  0  0  0  0  0  0  0
    1.1570    6.0550    1.1320 C   0  0  0  0  0  0  0  0  0  0  0  0
   -0.9080    7.2880    4.0850 C   0  0  0  0  0  0  0  0  0  0  0  0
   -0.7300    7.7820    1.4000 C   0  0  0  0  0  0  0  0  0  0  0  0
    0.0840    6.5470    3.3230 C   0  0  0  0  0  0  0  0  0  0  0  0
    0.1760    6.7980    1.9180 C   0  0  0  0  0  0  0  0  0  0  0  0
    2.6060    3.7050    3.6230 C   0  0  0  0  0  0  0  0  0  0  0  0
    3.5750    3.0230    2.8850 C   0  0  0  0  0  0  0  0  0  0  0  0
    3.8590    3.3820    1.5740 C   0  0  0  0  0  0  0  0  0  0  0  0
    3.0420    4.3630    0.9430 C   0  0  0  0  0  0  0  0  0  0  0  0
    0.9340    5.2570    5.3700 C   0  0  0  0  0  0  0  0  0  0  0  0
    2.1010    4.4360    5.9220 C   0  0  2  0  0  0  0  0  0  0  0  0
    2.3470    3.2330    5.0290 C   0  0  0  0  0  0  0  0  0  0  0  0
    1.2430    6.2370   -0.3940 C   0  0  1  0  0  0  0  0  0  0  0  0
    2.7100    6.1020   -0.9190 C   0  0  2  0  0  0  0  0  0  0  0  0
    3.3170    4.7280   -0.5220 C   0  0  2  0  0  0  0  0  0  0  0  0
    3.5150    7.3330   -0.3780 C   0  0  0  0  0  0  0  0  0  0  0  0
    3.0260    8.4660   -0.4110 O   0  0  0  0  0  0  0  0  0  0  0  0
    4.9640    7.1540    0.0740 C   0  0  0  0  0  0  0  0  0  0  0  0
   -2.3600    9.4950    1.5790 O   0  0  0  0  0  0  0  0  0  0  0  0
   -1.1590    6.9690    5.4120 O   0  0  0  0  0  0  0  0  0  0  0  0
   -0.8940    8.0020    0.0560 O   0  0  0  0  0  0  0  0  0  0  0  0
    5.6770    8.4820    0.2840 C   0  0  0  0  0  0  0  0  0  0  0  0
    1.8130    3.9830    7.3530 C   0  0  0  0  0  0  0  0  0  0  0  0
    0.1970    5.2920   -1.0220 C   0  0  0  0  0  0  0  0  0  0  0  0
    2.9730    3.5620   -1.4770 C   0  0  0  0  0  0  0  0  0  0  0  0
    4.9910    2.6390    0.9090 C   0  0  0  0  0  0  0  0  0  0  0  0
    2.7710    6.3200   -2.4540 C   0  0  0  0  0  0  0  0  0  0  0  0
   -3.7070    2.2820   -0.2500 C   0  0  0  0  0  0  0  0  0  0  0  0
   -2.8470    1.2420   -0.7850 C   0  0  0  0  0  0  0  0  0  0  0  0
   -2.6400    2.7710    5.2810 C   0  0  0  0  0  0  0  0  0  0  0  0
    0.1150   -0.9890    3.5070 C   0  0  0  0  0  0  0  0  0  0  0  0
   -1.7180    1.7200    5.6920 C   0  0  0  0  0  0  0  0  0  0  0  0
   -0.2530   -0.2900    4.7380 C   0  0  0  0  0  0  0  0  0  0  0  0
   -3.7490    2.5620    1.1460 C   0  0  0  0  0  0  0  0  0  0  0  0
   -2.0740    0.4600    0.0950 C   0  0  0  0  0  0  0  0  0  0  0  0
   -3.2260    2.8000    3.9780 C   0  0  0  0  0  0  0  0  0  0  0  0
   -0.5260   -0.7120    2.2340 C   0  0  0  0  0  0  0  0  0  0  0  0
   -1.2700    0.7220    4.7560 C   0  0  0  0  0  0  0  0  0  0  0  0
   -3.0370    1.6760    1.9030 C   0  0  0  0  0  0  0  0  0  0  0  0
   -2.2660    0.6950    1.4180 C   0  0  0  0  0  0  0  0  0  0  0  0
   -2.8110    1.7590    3.2150 C   0  0  0  0  0  0  0  0  0  0  0  0
   -1.5450    0.1720    2.4170 C   0  0  0  0  0  0  0  0  0  0  0  0
   -1.8930    0.8280    3.5470 C   0  0  0  0  0  0  0  0  0  0  0  0
   -4.3440    3.6510    1.8210 C   0  0  0  0  0  0  0  0  0  0  0  0
   -4.0060    3.8170    3.2780 C   0  0  0  0  0  0  0  0  0  0  0  0
   -1.0420   -0.4500   -0.1410 C   0  0  0  0  0  0  0  0  0  0  0  0
   -0.2990   -1.0540    0.8890 N   0  0  0  0  0  0  0  0  0  0  0  0
   -4.4640    3.0810   -1.0860 C   0  0  0  0  0  0  0  0  0  0  0  0
   -4.4330    2.7850   -2.4670 C   0  0  0  0  0  0  0  0  0  0  0  0
   -3.6100    1.7500   -3.0000 C   0  0  0  0  0  0  0  0  0  0  0  0
   -2.7410    1.0070   -2.1560 C   0  0  0  0  0  0  0  0  0  0  0  0
   -5.1890    4.1440   -0.4890 C   0  0  0  0  0  0  0  0  0  0  0  0
   -5.1290    4.4180    0.9120 C   0  0  0  0  0  0  0  0  0  0  0  0
   -1.7100   -0.0540   -2.6330 C   0  0  1  0  0  0  0  0  0  0  0  0
   -0.5460   -0.4730   -1.5920 C   0  0  1  0  0  0  0  0  0  0  0  0
   -2.8120    4.0470    6.0810 C   0  0  1  0  0  0  0  0  0  0  0  0
   -2.8960    5.2330    5.0490 C   0  0  1  0  0  0  0  0  0  0  0  0
   -4.1890    5.1070    4.1440 C   0  0  1  0  0  0  0  0  0  0  0  0
   -3.6470    1.5390   -4.4810 C   0  0  0  0  0  0  0  0  0  0  0  0
   -2.5780    1.4310   -5.0910 O   0  0  0  0  0  0  0  0  0  0  0  0
   -4.9640    1.6040   -5.2480 C   0  0  0  0  0  0  0  0  0  0  0  0
   -3.9390    4.0430    7.1070 C   0  0  0  0  0  0  0  0  0  0  0  0
   -3.9070    4.8630    8.0360 O   0  0  0  0  0  0  0  0  0  0  0  0
   -5.1150    3.1040    6.9910 C   0  0  0  0  0  0  0  0  0  0  0  0
    1.4500   -2.1890    3.4330 S   0  0  0  0  0  0  0  0  0  0  0  0
    0.5890    0.5820   -1.6760 C   0  0  0  0  0  0  0  0  0  0  0  0
   -2.5370    6.5880    5.7090 C   0  0  0  0  0  0  0  0  0  0  0  0
   -2.4570   -1.2780   -3.1600 C   0  0  0  0  0  0  0  0  0  0  0  0
   -4.4790    6.3570    3.3200 C   0  0  0  0  0  0  0  0  0  0  0  0
    0.0650   -1.8500   -1.9010 C   0  0  0  0  0  0  0  0  0  0  0  0
   -5.2710   -1.2030   -5.7550 C   0  0  0  0  0  0  0  0  0  0  0  0
   -1.6460   -2.5780   -8.7790 C   0  0  0  0  0  0  0  0  0  0  0  0
   -2.7900   -5.2730   -4.7580 N   0  0  0  0  0  0  0  0  0  0  0  0
   -4.6390   -1.0950   -7.0060 C   0  0  0  0  0  0  0  0  0  0  0  0
   -5.1230   -2.3980   -5.0190 C   0  0  0  0  0  0  0  0  0  0  0  0
   -2.7730   -1.7620   -8.5170 C   0  0  0  0  0  0  0  0  0  0  0  0
   -3.8040   -4.4990   -4.5540 C   0  0  0  0  0  0  0  0  0  0  0  0
   -1.3300   -3.6180   -7.8860 C   0  0  0  0  0  0  0  0  0  0  0  0
   -1.8240   -4.9850   -5.8020 C   0  0  0  0  0  0  0  0  0  0  0  0
   -3.5670   -1.9640   -7.3500 C   0  0  0  0  0  0  0  0  0  0  0  0
   -4.0850   -3.2890   -5.3750 C   0  0  0  0  0  0  0  0  0  0  0  0
   -2.1510   -3.8590   -6.7560 C   0  0  0  0  0  0  0  0  0  0  0  0
   -3.2580   -3.0390   -6.4840 C   0  0  0  0  0  0  0  0  0  0  0  0
   -5.1580   -0.1630   -8.0910 C   0  0  0  0  0  0  0  0  0  0  0  0
   -4.0000    0.4280   -8.8700 C   0  0  0  0  0  0  0  0  0  0  0  0
   -3.1800   -0.6840   -9.5050 C   0  0  0  0  0  0  0  0  0  0  0  0
   -6.1100   -2.7980   -3.9470 C   0  0  0  0  0  0  0  0  0  0  0  0
   -5.5070   -3.6840   -2.8760 C   0  0  0  0  0  0  0  0  0  0  0  0
   -4.7760   -4.9070   -3.4380 C   0  0  2  0  0  0  0  0  0  0  0  0
   -0.8080   -2.3370  -10.0260 C   0  0  0  0  0  0  0  0  0  0  0  0
    0.4040   -3.1280  -10.1250 N   0  0  0  0  0  0  0  0  0  0  0  0
    0.3750   -4.4580   -9.5480 C   0  0  0  0  0  0  0  0  0  0  0  0
   -0.0430   -4.3990   -8.0890 C   0  0  0  0  0  0  0  0  0  0  0  0
    1.4890   -2.6950  -10.8470 C   0  0  0  0  0  0  0  0  0  0  0  0
    2.5650   -3.2690  -10.9600 O   0  0  0  0  0  0  0  0  0  0  0  0
   -6.1210    0.2040   -4.9900 S   0  0  0  0  0  0  0  0  0  0  0  0
   -4.0030   -5.5550   -2.2660 C   0  0  0  0  0  0  0  0  0  0  0  0
   -5.7500   -5.9400   -4.0270 C   0  0  0  0  0  0  0  0  0  0  0  0
    4.5860   -5.6890    4.3390 C   0  0  0  0  0  0  0  0  0  0  0  0
    5.3030   -6.7670    3.7130 C   0  0  0  0  0  0  0  0  0  0  0  0
    8.0700   -3.1200    2.7170 C   0  0  0  0  0  0  0  0  0  0  0  0
    5.0670   -4.3700    4.2290 C   0  0  0  0  0  0  0  0  0  0  0  0
    6.5260   -6.4760    3.0450 C   0  0  0  0  0  0  0  0  0  0  0  0
    6.9730   -2.9000    3.4600 C   0  0  0  0  0  0  0  0  0  0  0  0
    8.2130   -4.5900    2.3430 C   0  0  0  0  0  0  0  0  0  0  0  0
    6.2750   -4.1660    3.5950 C   0  0  0  0  0  0  0  0  0  0  0  0
    6.9960   -5.1760    2.9920 C   0  0  0  0  0  0  0  0  0  0  0  0
    3.3950   -5.9090    5.0890 C   0  0  0  0  0  0  0  0  0  0  0  0
    2.9410   -7.2460    5.2560 C   0  0  0  0  0  0  0  0  0  0  0  0
    3.6110   -8.2920    4.6010 C   0  0  0  0  0  0  0  0  0  0  0  0
    4.7390   -8.0530    3.7990 C   0  0  0  0  0  0  0  0  0  0  0  0
    2.6710   -4.8130    5.6560 C   0  0  0  0  0  0  0  0  0  0  0  0
    1.6160   -5.1510    6.5530 C   0  0  0  0  0  0  0  0  0  0  0  0
    1.1820   -6.4700    6.7330 C   0  0  0  0  0  0  0  0  0  0  0  0
    1.8170   -7.4990    6.0590 C   0  0  0  0  0  0  0  0  0  0  0  0
    3.0590   -3.4810    5.2500 C   0  0  0  0  0  0  0  0  0  0  0  0
    4.3230   -3.2580    4.6490 C   0  0  0  0  0  0  0  0  0  0  0  0
    4.8270   -1.8650    4.2600 C   0  0  0  0  0  0  0  0  0  0  0  0
    6.3640   -1.7280    4.1520 C   0  0  0  0  0  0  0  0  0  0  0  0
    5.2360   -9.2140    3.0070 C   0  0  0  0  0  0  0  0  0  0  0  0
    5.3500  -10.2990    3.5740 O   0  0  0  0  0  0  0  0  0  0  0  0
    5.4280   -9.0440    1.5070 C   0  0  0  0  0  0  0  0  0  0  0  0
    0.9960   -4.1870    7.4950 C   0  0  0  0  0  0  0  0  0  0  0  0
    1.6140   -3.2840    8.0300 O   0  0  0  0  0  0  0  0  0  0  0  0
    3.1180   -9.5700    4.7590 O   0  0  0  0  0  0  0  0  0  0  0  0
    5.0530  -10.2980    0.7410 C   0  0  0  0  0  0  0  0  0  0  0  0
    2.0230   -2.3650    5.1830 C   0  0  0  0  0  0  0  0  0  0  0  0
    9.0970   -2.1240    2.3020 C   0  0  0  0  0  0  0  0  0  0  0  0
   -2.3320    8.9160    4.1680 H   0  0  0  0  0  0  0  0  0  0  0  0
    4.1350    2.2160    3.3560 H   0  0  0  0  0  0  0  0  0  0  0  0
    0.9570    6.2070    5.9150 H   0  0  0  0  0  0  0  0  0  0  0  0
    0.0010    4.7340    5.5920 H   0  0  0  0  0  0  0  0  0  0  0  0
    3.0060    5.0600    5.9330 H   0  0  0  0  0  0  0  0  0  0  0  0
    3.2020    2.6640    5.4130 H   0  0  0  0  0  0  0  0  0  0  0  0
    1.4830    2.5560    5.0190 H   0  0  0  0  0  0  0  0  0  0  0  0
    0.9640    7.2560   -0.6630 H   0  0  0  0  0  0  0  0  0  0  0  0
    4.4050    4.8300   -0.6150 H   0  0  0  0  0  0  0  0  0  0  0  0
    5.5070    6.6080   -0.7030 H   0  0  0  0  0  0  0  0  0  0  0  0
    4.9700    6.5840    1.0070 H   0  0  0  0  0  0  0  0  0  0  0  0
   -2.7100   10.0980    2.2590 H   0  0  0  0  0  0  0  0  0  0  0  0
   -1.5640    8.7170   -0.0160 H   0  0  0  0  0  0  0  0  0  0  0  0
    5.7330    9.0440   -0.6570 H   0  0  0  0  0  0  0  0  0  0  0  0
    6.6990    8.3180    0.6420 H   0  0  0  0  0  0  0  0  0  0  0  0
    5.1550    9.1100    1.0160 H   0  0  0  0  0  0  0  0  0  0  0  0
    0.9220    3.3470    7.3970 H   0  0  0  0  0  0  0  0  0  0  0  0
    1.6460    4.8430    8.0090 H   0  0  0  0  0  0  0  0  0  0  0  0
    2.6530    3.4100    7.7570 H   0  0  0  0  0  0  0  0  0  0  0  0
    0.2940    4.2680   -0.6550 H   0  0  0  0  0  0  0  0  0  0  0  0
   -0.8200    5.5990   -0.7520 H   0  0  0  0  0  0  0  0  0  0  0  0
    0.2420    5.2880   -2.1140 H   0  0  0  0  0  0  0  0  0  0  0  0
    3.4280    2.6180   -1.1610 H   0  0  0  0  0  0  0  0  0  0  0  0
    3.3610    3.7510   -2.4830 H   0  0  0  0  0  0  0  0  0  0  0  0
    1.9020    3.3660   -1.5540 H   0  0  0  0  0  0  0  0  0  0  0  0
    4.6330    1.6920    0.4920 H   0  0  0  0  0  0  0  0  0  0  0  0
    5.7770    2.4060    1.6390 H   0  0  0  0  0  0  0  0  0  0  0  0
    5.4820    3.2190    0.1240 H   0  0  0  0  0  0  0  0  0  0  0  0
    2.3980    7.3150   -2.7340 H   0  0  0  0  0  0  0  0  0  0  0  0
    2.1810    5.5920   -3.0170 H   0  0  0  0  0  0  0  0  0  0  0  0
    3.8090    6.2570   -2.8080 H   0  0  0  0  0  0  0  0  0  0  0  0
   -1.2670    1.7650    6.6790 H   0  0  0  0  0  0  0  0  0  0  0  0
    0.2870   -0.4680    5.6600 H   0  0  0  0  0  0  0  0  0  0  0  0
   -5.0260    3.4090   -3.1250 H   0  0  0  0  0  0  0  0  0  0  0  0
   -5.7940    4.7990   -1.1110 H   0  0  0  0  0  0  0  0  0  0  0  0
   -5.7070    5.2700    1.2630 H   0  0  0  0  0  0  0  0  0  0  0  0
   -1.1730    0.3960   -3.4830 H   0  0  0  0  0  0  0  0  0  0  0  0
   -1.8890    4.1680    6.6640 H   0  0  0  0  0  0  0  0  0  0  0  0
   -2.0700    5.0520    4.3440 H   0  0  0  0  0  0  0  0  0  0  0  0
   -5.0610    4.9360    4.7910 H   0  0  0  0  0  0  0  0  0  0  0  0
   -4.7060    1.7090   -6.3060 H   0  0  0  0  0  0  0  0  0  0  0  0
   -5.5010    2.5300   -5.0110 H   0  0  0  0  0  0  0  0  0  0  0  0
   -5.3450    2.7070    7.9830 H   0  0  0  0  0  0  0  0  0  0  0  0
   -5.9760    3.6560    6.6080 H   0  0  0  0  0  0  0  0  0  0  0  0
   -4.9170    2.2490    6.3440 H   0  0  0  0  0  0  0  0  0  0  0  0
    1.3730    0.4000   -0.9310 H   0  0  0  0  0  0  0  0  0  0  0  0
    0.2050    1.5970   -1.4980 H   0  0  0  0  0  0  0  0  0  0  0  0
    1.0640    0.5720   -2.6630 H   0  0  0  0  0  0  0  0  0  0  0  0
   -2.5580    6.4970    6.7960 H   0  0  0  0  0  0  0  0  0  0  0  0
   -3.2260    7.4060    5.4900 H   0  0  0  0  0  0  0  0  0  0  0  0
   -2.9170   -1.8530   -2.3500 H   0  0  0  0  0  0  0  0  0  0  0  0
   -3.2430   -0.9800   -3.8500 H   0  0  0  0  0  0  0  0  0  0  0  0
   -1.7840   -1.9360   -3.7260 H   0  0  0  0  0  0  0  0  0  0  0  0
   -4.4070    7.2810    3.8890 H   0  0  0  0  0  0  0  0  0  0  0  0
   -3.8100    6.4430    2.4590 H   0  0  0  0  0  0  0  0  0  0  0  0
   -5.5190    6.3320    2.9740 H   0  0  0  0  0  0  0  0  0  0  0  0
   -0.6510   -2.6640   -1.7410 H   0  0  0  0  0  0  0  0  0  0  0  0
    0.4300   -1.8900   -2.9350 H   0  0  0  0  0  0  0  0  0  0  0  0
    0.9280   -2.0630   -1.2550 H   0  0  0  0  0  0  0  0  0  0  0  0
   -1.7220   -5.9140   -6.3820 H   0  0  0  0  0  0  0  0  0  0  0  0
   -0.8520   -4.7810   -5.3300 H   0  0  0  0  0  0  0  0  0  0  0  0
   -5.8020   -0.7530   -8.7560 H   0  0  0  0  0  0  0  0  0  0  0  0
   -5.7990    0.6370   -7.7170 H   0  0  0  0  0  0  0  0  0  0  0  0
   -3.3640    1.0250   -8.2020 H   0  0  0  0  0  0  0  0  0  0  0  0
   -4.3710    1.1070   -9.6450 H   0  0  0  0  0  0  0  0  0  0  0  0
   -2.3100   -0.2070   -9.9670 H   0  0  0  0  0  0  0  0  0  0  0  0
   -3.7620   -1.1600  -10.3060 H   0  0  0  0  0  0  0  0  0  0  0  0
   -6.5340   -1.9330   -3.4310 H   0  0  0  0  0  0  0  0  0  0  0  0
   -6.9460   -3.3150   -4.4310 H   0  0  0  0  0  0  0  0  0  0  0  0
   -4.8120   -3.0820   -2.2760 H   0  0  0  0  0  0  0  0  0  0  0  0
   -6.3000   -4.0090   -2.1830 H   0  0  0  0  0  0  0  0  0  0  0  0
   -0.5090   -1.2810  -10.0810 H   0  0  0  0  0  0  0  0  0  0  0  0
   -1.4110   -2.5710  -10.9120 H   0  0  0  0  0  0  0  0  0  0  0  0
    1.3530   -4.9410   -9.6390 H   0  0  0  0  0  0  0  0  0  0  0  0
   -0.3390   -5.0490  -10.1360 H   0  0  0  0  0  0  0  0  0  0  0  0
    0.7390   -3.9000   -7.5000 H   0  0  0  0  0  0  0  0  0  0  0  0
   -0.1320   -5.4280   -7.7310 H   0  0  0  0  0  0  0  0  0  0  0  0
    1.3190   -1.7090  -11.3160 H   0  0  0  0  0  0  0  0  0  0  0  0
   -3.2280   -4.8770   -1.8810 H   0  0  0  0  0  0  0  0  0  0  0  0
   -4.6760   -5.7970   -1.4340 H   0  0  0  0  0  0  0  0  0  0  0  0
   -3.5010   -6.4860   -2.5670 H   0  0  0  0  0  0  0  0  0  0  0  0
   -6.5020   -6.2460   -3.2900 H   0  0  0  0  0  0  0  0  0  0  0  0
   -6.2710   -5.5520   -4.9090 H   0  0  0  0  0  0  0  0  0  0  0  0
   -5.2130   -6.8420   -4.3520 H   0  0  0  0  0  0  0  0  0  0  0  0
    7.1350   -7.2510    2.5970 H   0  0  0  0  0  0  0  0  0  0  0  0
    8.1880   -4.7220    1.2560 H   0  0  0  0  0  0  0  0  0  0  0  0
    9.1280   -5.0160    2.7640 H   0  0  0  0  0  0  0  0  0  0  0  0
    0.3780   -6.7050    7.4210 H   0  0  0  0  0  0  0  0  0  0  0  0
    1.4480   -8.5140    6.1990 H   0  0  0  0  0  0  0  0  0  0  0  0
    4.3940   -1.6060    3.2830 H   0  0  0  0  0  0  0  0  0  0  0  0
    4.4880   -1.1180    4.9910 H   0  0  0  0  0  0  0  0  0  0  0  0
    6.6170   -0.7890    3.6460 H   0  0  0  0  0  0  0  0  0  0  0  0
    6.7850   -1.6670    5.1610 H   0  0  0  0  0  0  0  0  0  0  0  0
    4.8130   -8.2100    1.1480 H   0  0  0  0  0  0  0  0  0  0  0  0
    6.4790   -8.8200    1.3100 H   0  0  0  0  0  0  0  0  0  0  0  0
   -0.0620   -4.3820    7.7570 H   0  0  0  0  0  0  0  0  0  0  0  0
    3.8720  -10.1950    4.5960 H   0  0  0  0  0  0  0  0  0  0  0  0
    5.1380  -10.1200   -0.3340 H   0  0  0  0  0  0  0  0  0  0  0  0
    4.0230  -10.5930    0.9600 H   0  0  0  0  0  0  0  0  0  0  0  0
    5.7100  -11.1320    1.0100 H   0  0  0  0  0  0  0  0  0  0  0  0
    1.1250   -2.5850    5.7540 H   0  0  0  0  0  0  0  0  0  0  0  0
    2.4350   -1.4220    5.5550 H   0  0  0  0  0  0  0  0  0  0  0  0
   10.0720   -2.3790    2.7270 H   0  0  0  0  0  0  0  0  0  0  0  0
    9.1850   -2.1090    1.2120 H   0  0  0  0  0  0  0  0  0  0  0  0
    8.8380   -1.1120    2.6330 H   0  0  0  0  0  0  0  0  0  0  0  0
  1  2  1  0
  1  5  2  0
  1 11  1  0
  2  6  2  0
  2 14  1  0
  3  4  2  0
  3  7  1  0
  3134  1  0
  4  8  1  0
  4 24  1  0
  5  9  1  0
  5 15  1  0
  6 10  1  0
  6 18  1  0
  7  9  2  0
  7 25  1  0
  8 10  2  0
  8 26  1  0
  9 10  1  0
 11 12  2  0
 11 17  1  0
 12 13  1  0
 12135  1  0
 13 14  2  0
 13 31  1  0
 14 20  1  0
 15 16  1  0
 15136  1  0
 15137  1  0
 16 17  1  0
 16 28  1  0
 16138  1  1
 17139  1  0
 17140  1  0
 18 19  1  0
 18 29  1  0
 18141  1  1
 19 20  1  0
 19 21  1  0
 19 32  1  6
 20 30  1  0
 20142  1  1
 21 22  2  0
 21 23  1  0
 23 27  1  0
 23143  1  0
 23144  1  0
 24145  1  0
 25 72  1  0
 26146  1  0
 27147  1  0
 27148  1  0
 27149  1  0
 28150  1  0
 28151  1  0
 28152  1  0
 29153  1  0
 29154  1  0
 29155  1  0
 30156  1  0
 30157  1  0
 30158  1  0
 31159  1  0
 31160  1  0
 31161  1  0
 32162  1  0
 32163  1  0
 32164  1  0
 33 34  2  0
 33 39  1  0
 33 53  1  0
 34 40  1  0
 34 56  1  0
 35 37  2  0
 35 41  1  0
 35 61  1  0
 36 38  1  0
 36 42  2  0
 36 70  1  0
 37 43  1  0
 37165  1  0
 38 43  2  0
 38166  1  0
 39 44  2  0
 39 49  1  0
 40 45  2  0
 40 51  1  0
 41 46  2  0
 41 50  1  0
 42 47  1  0
 42 52  1  0
 43 48  1  0
 44 45  1  0
 44 46  1  0
 45 47  1  0
 46 48  1  0
 47 48  2  0
 49 50  2  0
 49 58  1  0
 50 63  1  0
 51 52  2  0
 51 60  1  0
 53 54  2  0
 53 57  1  0
 54 55  1  0
 54167  1  0
 55 56  2  0
 55 64  1  0
 56 59  1  0
 57 58  2  0
 57168  1  0
 58169  1  0
 59 60  1  0
 59 73  1  0
 59170  1  6
 60 71  1  1
 60 75  1  0
 61 62  1  0
 61 67  1  0
 61171  1  1
 62 63  1  0
 62 72  1  0
 62172  1  6
 63 74  1  0
 63173  1  1
 64 65  2  0
 64 66  1  0
 66101  1  0
 66174  1  0
 66175  1  0
 67 68  2  0
 67 69  1  0
 69176  1  0
 69177  1  0
 69178  1  0
 70132  1  0
 71179  1  0
 71180  1  0
 71181  1  0
 72182  1  0
 72183  1  0
 73184  1  0
 73185  1  0
 73186  1  0
 74187  1  0
 74188  1  0
 74189  1  0
 75190  1  0
 75191  1  0
 75192  1  0
 76 79  2  0
 76 80  1  0
 76101  1  0
 77 81  2  0
 77 83  1  0
 77 95  1  0
 78 82  2  0
 78 84  1  0
 79 85  1  0
 79 89  1  0
 80 86  2  0
 80 92  1  0
 81 85  1  0
 81 91  1  0
 82 86  1  0
 82 94  1  0
 83 87  2  0
 83 98  1  0
 84 87  1  0
 84193  1  0
 84194  1  0
 85 88  2  0
 86 88  1  0
 87 88  1  0
 89 90  1  0
 89195  1  0
 89196  1  0
 90 91  1  0
 90197  1  0
 90198  1  0
 91199  1  0
 91200  1  0
 92 93  1  0
 92201  1  0
 92202  1  0
 93 94  1  0
 93203  1  0
 93204  1  0
 94102  1  1
 94103  1  0
 95 96  1  0
 95205  1  0
 95206  1  0
 96 97  1  0
 96 99  1  0
 97 98  1  0
 97207  1  0
 97208  1  0
 98209  1  0
 98210  1  0
 99100  2  0
 99211  1  0
102212  1  0
102213  1  0
102214  1  0
103215  1  0
103216  1  0
103217  1  0
104105  2  0
104107  1  0
104113  1  0
105108  1  0
105116  1  0
106109  2  0
106110  1  0
106133  1  0
107111  2  0
107122  1  0
108112  2  0
108218  1  0
109111  1  0
109124  1  0
110112  1  0
110219  1  0
110220  1  0
111112  1  0
113114  2  0
113117  1  0
114115  1  0
114120  1  0
115116  2  0
115130  1  0
116125  1  0
117118  2  0
117121  1  0
118119  1  0
118128  1  0
119120  2  0
119221  1  0
120222  1  0
121122  2  0
121132  1  0
122123  1  0
123124  1  0
123223  1  0
123224  1  0
124225  1  0
124226  1  0
125126  2  0
125127  1  0
127131  1  0
127227  1  0
127228  1  0
128129  2  0
128229  1  0
130230  1  0
131231  1  0
131232  1  0
131233  1  0
132234  1  0
132235  1  0
133236  1  0
133237  1  0
133238  1  0
M  END
