
     RDKit          3D

239265  0  0  0  0  0  0  0  0999 V2000
   -6.1290   -1.6460    0.3450 C   0  0  0  0  0  0  0  0  0  0  0  0
   -6.5490   -0.2940    0.6140 C   0  0  0  0  0  0  0  0  0  0  0  0
   -1.9830   -0.2130    1.7780 C   0  0  0  0  0  0  0  0  0  0  0  0
   -4.8000   -2.0690    0.6140 C   0  0  0  0  0  0  0  0  0  0  0  0
   -5.5730    0.6270    1.1860 C   0  0  0  0  0  0  0  0  0  0  0  0
   -2.5060   -1.3660    1.3500 C   0  0  0  0  0  0  0  0  0  0  0  0
   -3.0360    0.8770    1.9590 C   0  0  1  0  0  0  0  0  0  0  0  0
   -3.9160   -1.1360    1.1110 C   0  0  0  0  0  0  0  0  0  0  0  0
   -4.2700    0.1740    1.4250 C   0  0  0  0  0  0  0  0  0  0  0  0
   -7.0250   -2.6160   -0.2000 C   0  0  0  0  0  0  0  0  0  0  0  0
   -8.3750   -2.2970   -0.4770 C   0  0  0  0  0  0  0  0  0  0  0  0
   -8.8240   -0.9750   -0.2480 C   0  0  0  0  0  0  0  0  0  0  0  0
   -7.9260   -0.0180    0.2910 C   0  0  0  0  0  0  0  0  0  0  0  0
   -6.5560   -3.9310   -0.4710 C   0  0  0  0  0  0  0  0  0  0  0  0
   -7.4160   -4.8990   -0.9930 C   0  0  0  0  0  0  0  0  0  0  0  0
   -8.7400   -4.5970   -1.2110 C   0  0  0  0  0  0  0  0  0  0  0  0
   -9.2220   -3.3220   -0.9630 C   0  0  0  0  0  0  0  0  0  0  0  0
   -5.2300   -4.2810   -0.2020 C   0  0  0  0  0  0  0  0  0  0  0  0
   -4.3450   -3.3750    0.3780 C   0  0  0  0  0  0  0  0  0  0  0  0
   -2.9300   -3.8340    0.7400 C   0  0  1  0  0  0  0  0  0  0  0  0
   -1.9300   -2.7320    1.2170 C   0  0  1  0  0  0  0  0  0  0  0  0
   -8.4650    1.3350    0.5130 C   0  0  0  0  0  0  0  0  0  0  0  0
   -9.2550    1.5610    1.4240 O   0  0  0  0  0  0  0  0  0  0  0  0
   -9.5540   -5.5880   -1.6790 O   0  0  0  0  0  0  0  0  0  0  0  0
   -0.5340   -2.7970    0.5430 C   0  0  0  0  0  0  0  0  0  0  0  0
   -3.1300    1.3430    3.4350 C   0  0  0  0  0  0  0  0  0  0  0  0
   -2.9960   -4.9550    1.7930 C   0  0  0  0  0  0  0  0  0  0  0  0
   -5.8970    2.0580    1.5260 C   0  0  0  0  0  0  0  0  0  0  0  0
  -10.2520   -0.5990   -0.5790 C   0  0  0  0  0  0  0  0  0  0  0  0
   -1.2730   -5.4330   -2.7740 C   0  0  0  0  0  0  0  0  0  0  0  0
   -2.4460   -4.9790   -3.4350 C   0  0  0  0  0  0  0  0  0  0  0  0
   -2.3370  -10.1830   -3.7780 C   0  0  0  0  0  0  0  0  0  0  0  0
   -3.5250   -9.7790   -4.3920 C   0  0  0  0  0  0  0  0  0  0  0  0
   -0.8780   -6.7880   -2.9230 C   0  0  0  0  0  0  0  0  0  0  0  0
   -3.2640   -5.9280   -4.1690 C   0  0  0  0  0  0  0  0  0  0  0  0
   -1.4760   -9.1470   -3.3630 C   0  0  0  0  0  0  0  0  0  0  0  0
   -3.8030   -8.4060   -4.5340 C   0  0  0  0  0  0  0  0  0  0  0  0
   -1.7620   -7.7540   -3.4680 C   0  0  0  0  0  0  0  0  0  0  0  0
   -2.9700   -7.3420   -4.0780 C   0  0  0  0  0  0  0  0  0  0  0  0
   -0.5120   -4.5450   -1.9550 C   0  0  0  0  0  0  0  0  0  0  0  0
   -0.9400   -3.2260   -1.7670 C   0  0  0  0  0  0  0  0  0  0  0  0
   -1.9510   -2.6930   -2.5700 C   0  0  0  0  0  0  0  0  0  0  0  0
   -2.7400   -3.5790   -3.3360 C   0  0  0  0  0  0  0  0  0  0  0  0
   -2.1130  -11.5850   -3.5950 C   0  0  0  0  0  0  0  0  0  0  0  0
   -3.0610  -12.5500   -4.0080 C   0  0  0  0  0  0  0  0  0  0  0  0
   -4.2240  -12.1060   -4.6380 C   0  0  0  0  0  0  0  0  0  0  0  0
   -4.4430  -10.7440   -4.8430 C   0  0  0  0  0  0  0  0  0  0  0  0
    0.4950   -7.2260   -2.4210 C   0  0  0  0  0  0  0  0  0  0  0  0
    1.4340   -6.0650   -2.1470 C   0  0  0  0  0  0  0  0  0  0  0  0
    0.7210   -5.0640   -1.2610 C   0  0  0  0  0  0  0  0  0  0  0  0
   -4.3570   -5.2980   -5.0940 C   0  0  1  0  0  0  0  0  0  0  0  0
   -4.9540   -4.0630   -4.3910 C   0  0  0  0  0  0  0  0  0  0  0  0
   -3.9250   -3.0080   -4.0670 C   0  0  0  0  0  0  0  0  0  0  0  0
   -0.8630  -12.0610   -2.9600 C   0  0  0  0  0  0  0  0  0  0  0  0
   -0.4440  -11.6250   -1.8960 O   0  0  0  0  0  0  0  0  0  0  0  0
   -0.4060   -2.3830   -0.8250 O   0  0  0  0  0  0  0  0  0  0  0  0
   -3.6520   -4.9060   -6.4150 C   0  0  0  0  0  0  0  0  0  0  0  0
   -2.2350   -1.2080   -2.5240 C   0  0  0  0  0  0  0  0  0  0  0  0
   -5.6060   -6.1110   -5.4980 C   0  0  0  0  0  0  0  0  0  0  0  0
   -2.9180  -14.0260   -3.7190 C   0  0  0  0  0  0  0  0  0  0  0  0
   -3.3840  -14.4230   -2.0080 S   0  0  0  0  0  0  0  0  0  0  0  0
    2.2050    6.6030   -2.0090 C   0  0  0  0  0  0  0  0  0  0  0  0
   -0.1550    5.6570    7.0450 C   0  0  0  0  0  0  0  0  0  0  0  0
    2.7700    7.5870   -1.1810 C   0  0  0  0  0  0  0  0  0  0  0  0
   -0.6250    4.5970    6.2540 C   0  0  0  0  0  0  0  0  0  0  0  0
    1.5560    5.5120   -1.3910 C   0  0  0  0  0  0  0  0  0  0  0  0
    0.5940    6.6700    6.4290 C   0  0  0  0  0  0  0  0  0  0  0  0
    3.2290    8.5010    1.0390 C   0  0  0  0  0  0  0  0  0  0  0  0
   -0.7960    3.5060    4.0870 C   0  0  0  0  0  0  0  0  0  0  0  0
    3.0210    8.4480    2.4360 C   0  0  0  0  0  0  0  0  0  0  0  0
   -0.5300    3.5270    2.7140 C   0  0  0  0  0  0  0  0  0  0  0  0
    0.2830    4.6200    0.6460 C   0  0  0  0  0  0  0  0  0  0  0  0
    1.6210    7.7250    4.4230 C   0  0  0  0  0  0  0  0  0  0  0  0
    2.5760    7.5440    0.2300 C   0  0  0  0  0  0  0  0  0  0  0  0
   -0.3400    4.5780    4.8610 C   0  0  0  0  0  0  0  0  0  0  0  0
    1.1790    5.5290    0.0030 C   0  0  0  0  0  0  0  0  0  0  0  0
    0.8830    6.6860    5.0480 C   0  0  0  0  0  0  0  0  0  0  0  0
    0.1530    4.5730    2.0590 C   0  0  0  0  0  0  0  0  0  0  0  0
    2.0530    7.6140    3.0540 C   0  0  0  0  0  0  0  0  0  0  0  0
    1.7460    6.5500    0.8250 C   0  0  0  0  0  0  0  0  0  0  0  0
    0.4230    5.6150    4.2560 C   0  0  0  0  0  0  0  0  0  0  0  0
    1.4850    6.6020    2.2390 C   0  0  0  0  0  0  0  0  0  0  0  0
    0.6920    5.6000    2.8500 C   0  0  0  0  0  0  0  0  0  0  0  0
    2.3340    6.7090   -3.4230 C   0  0  0  0  0  0  0  0  0  0  0  0
    3.1050    7.7470   -3.9670 C   0  0  0  0  0  0  0  0  0  0  0  0
    3.7420    8.6630   -3.1440 C   0  0  0  0  0  0  0  0  0  0  0  0
    3.5830    8.5930   -1.7610 C   0  0  0  0  0  0  0  0  0  0  0  0
    4.2240    9.5160   -0.9480 C   0  0  0  0  0  0  0  0  0  0  0  0
    4.0610    9.4610    0.4270 C   0  0  0  0  0  0  0  0  0  0  0  0
   -0.4240    5.6800    8.4230 C   0  0  0  0  0  0  0  0  0  0  0  0
   -1.1610    4.6520    9.0150 C   0  0  0  0  0  0  0  0  0  0  0  0
   -1.6240    3.5960    8.2420 C   0  0  0  0  0  0  0  0  0  0  0  0
   -1.3600    3.5530    6.8590 C   0  0  0  0  0  0  0  0  0  0  0  0
   -1.7960    2.4810    6.0730 C   0  0  0  0  0  0  0  0  0  0  0  0
   -1.5130    2.4620    4.7140 C   0  0  0  0  0  0  0  0  0  0  0  0
    1.5280    4.2470   -2.2580 C   0  0  1  0  0  0  0  0  0  0  0  0
    0.8890    4.6000   -3.5980 C   0  0  0  0  0  0  0  0  0  0  0  0
    1.6030    5.7390   -4.3710 C   0  0  1  0  0  0  0  0  0  0  0  0
    4.0440    9.1220    3.2980 C   0  0  0  0  0  0  0  0  0  0  0  0
    4.0870   10.3440    3.3700 O   0  0  0  0  0  0  0  0  0  0  0  0
    5.0400    8.1970    3.9820 C   0  0  0  0  0  0  0  0  0  0  0  0
   -1.8240    1.3170    4.0280 O   0  0  0  0  0  0  0  0  0  0  0  0
    2.9250    3.5890   -2.4050 C   0  0  0  0  0  0  0  0  0  0  0  0
    5.7940    8.8980    5.0930 C   0  0  0  0  0  0  0  0  0  0  0  0
    0.5030    6.5270   -5.1290 C   0  0  0  0  0  0  0  0  0  0  0  0
    2.5540    5.1360   -5.4260 C   0  0  0  0  0  0  0  0  0  0  0  0
   -0.7050    3.7880   -0.1560 C   0  0  0  0  0  0  0  0  0  0  0  0
    1.8770    8.9930    5.2140 C   0  0  0  0  0  0  0  0  0  0  0  0
    5.2710    1.1780    1.2720 C   0  0  0  0  0  0  0  0  0  0  0  0
    5.9810    1.3390    2.4950 C   0  0  0  0  0  0  0  0  0  0  0  0
    3.4580   -3.0030    3.2830 C   0  0  0  0  0  0  0  0  0  0  0  0
    4.1520   -2.7360    4.4510 C   0  0  0  0  0  0  0  0  0  0  0  0
    4.4450    0.0220    1.1600 C   0  0  0  0  0  0  0  0  0  0  0  0
    5.8660    0.4050    3.5270 C   0  0  0  0  0  0  0  0  0  0  0  0
    3.5630   -2.1380    2.1820 C   0  0  0  0  0  0  0  0  0  0  0  0
    4.9620   -1.6060    4.5130 C   0  0  0  0  0  0  0  0  0  0  0  0
    4.3450   -0.9500    2.2260 C   0  0  0  0  0  0  0  0  0  0  0  0
    5.0610   -0.7230    3.4180 C   0  0  0  0  0  0  0  0  0  0  0  0
    5.4290    2.1740    0.2540 C   0  0  0  0  0  0  0  0  0  0  0  0
    6.2490    3.3020    0.5400 C   0  0  0  0  0  0  0  0  0  0  0  0
    6.9520    3.4160    1.7360 C   0  0  0  0  0  0  0  0  0  0  0  0
    6.8060    2.4450    2.7180 C   0  0  0  0  0  0  0  0  0  0  0  0
    3.6240   -0.1710   -0.1050 C   0  0  2  0  0  0  0  0  0  0  0  0
    4.2310    0.5550   -1.3330 C   0  0  2  0  0  0  0  0  0  0  0  0
    4.6710    2.0600   -1.1090 C   0  0  2  0  0  0  0  0  0  0  0  0
    7.8530    4.5540    2.0260 C   0  0  0  0  0  0  0  0  0  0  0  0
    7.6250    5.2490    3.0160 O   0  0  0  0  0  0  0  0  0  0  0  0
    8.9950    4.8220    1.0820 C   0  0  0  0  0  0  0  0  0  0  0  0
    2.5730   -4.1830    3.1860 C   0  0  0  0  0  0  0  0  0  0  0  0
    2.2920   -4.8720    4.1620 O   0  0  0  0  0  0  0  0  0  0  0  0
    6.3290    4.3360   -0.3540 O   0  0  0  0  0  0  0  0  0  0  0  0
    5.6400    2.3990   -2.2840 C   0  0  0  0  0  0  0  0  0  0  0  0
    2.1290    0.0660    0.1480 C   0  0  0  0  0  0  0  0  0  0  0  0
    3.3540    0.2850   -2.5690 C   0  0  0  0  0  0  0  0  0  0  0  0
    3.4850    3.0860   -1.0650 C   0  0  0  0  0  0  0  0  0  0  0  0
   -0.9500   -0.0720    2.0710 H   0  0  0  0  0  0  0  0  0  0  0  0
   -2.7820    1.7260    1.2990 H   0  0  0  0  0  0  0  0  0  0  0  0
   -7.0660   -5.9100   -1.1990 H   0  0  0  0  0  0  0  0  0  0  0  0
  -10.2750   -3.1230   -1.1450 H   0  0  0  0  0  0  0  0  0  0  0  0
   -4.8880   -5.2900   -0.4330 H   0  0  0  0  0  0  0  0  0  0  0  0
   -2.5330   -4.3200   -0.1540 H   0  0  0  0  0  0  0  0  0  0  0  0
   -1.6970   -2.9900    2.2640 H   0  0  0  0  0  0  0  0  0  0  0  0
   -8.1160    2.1180   -0.1850 H   0  0  0  0  0  0  0  0  0  0  0  0
  -10.4630   -5.2540   -1.7380 H   0  0  0  0  0  0  0  0  0  0  0  0
   -0.1040   -3.7850    0.7070 H   0  0  0  0  0  0  0  0  0  0  0  0
    0.1400   -2.1350    1.0990 H   0  0  0  0  0  0  0  0  0  0  0  0
   -3.7550    0.6560    4.0160 H   0  0  0  0  0  0  0  0  0  0  0  0
   -3.5860    2.3380    3.4930 H   0  0  0  0  0  0  0  0  0  0  0  0
   -1.9900   -5.2940    2.0670 H   0  0  0  0  0  0  0  0  0  0  0  0
   -3.5450   -5.8330    1.4260 H   0  0  0  0  0  0  0  0  0  0  0  0
   -3.4960   -4.6130    2.7080 H   0  0  0  0  0  0  0  0  0  0  0  0
   -5.0480    2.5950    1.9540 H   0  0  0  0  0  0  0  0  0  0  0  0
   -6.1650    2.6140    0.6230 H   0  0  0  0  0  0  0  0  0  0  0  0
   -6.6960    2.1070    2.2740 H   0  0  0  0  0  0  0  0  0  0  0  0
  -10.5170   -0.9570   -1.5820 H   0  0  0  0  0  0  0  0  0  0  0  0
  -10.9390   -1.0390    0.1570 H   0  0  0  0  0  0  0  0  0  0  0  0
  -10.4360    0.4800   -0.6090 H   0  0  0  0  0  0  0  0  0  0  0  0
   -0.5430   -9.4470   -2.8880 H   0  0  0  0  0  0  0  0  0  0  0  0
   -4.7680   -8.2000   -4.9570 H   0  0  0  0  0  0  0  0  0  0  0  0
   -4.9870  -12.8160   -4.9620 H   0  0  0  0  0  0  0  0  0  0  0  0
   -5.3600  -10.4330   -5.3360 H   0  0  0  0  0  0  0  0  0  0  0  0
    0.9760   -7.8510   -3.1810 H   0  0  0  0  0  0  0  0  0  0  0  0
    0.3660   -7.8150   -1.5050 H   0  0  0  0  0  0  0  0  0  0  0  0
    1.7370   -5.5900   -3.0930 H   0  0  0  0  0  0  0  0  0  0  0  0
    2.3440   -6.4270   -1.6570 H   0  0  0  0  0  0  0  0  0  0  0  0
    0.4330   -5.5550   -0.3240 H   0  0  0  0  0  0  0  0  0  0  0  0
    1.4150   -4.2500   -1.0250 H   0  0  0  0  0  0  0  0  0  0  0  0
   -5.4470   -4.3860   -3.4580 H   0  0  0  0  0  0  0  0  0  0  0  0
   -5.7420   -3.5980   -5.0010 H   0  0  0  0  0  0  0  0  0  0  0  0
   -3.5870   -2.5100   -4.9840 H   0  0  0  0  0  0  0  0  0  0  0  0
   -4.4300   -2.2550   -3.4530 H   0  0  0  0  0  0  0  0  0  0  0  0
   -0.3270  -12.8660   -3.4940 H   0  0  0  0  0  0  0  0  0  0  0  0
   -3.3660   -5.8000   -6.9740 H   0  0  0  0  0  0  0  0  0  0  0  0
   -2.7340   -4.3310   -6.2580 H   0  0  0  0  0  0  0  0  0  0  0  0
   -4.3080   -4.3080   -7.0560 H   0  0  0  0  0  0  0  0  0  0  0  0
   -2.5340   -0.8400   -3.5060 H   0  0  0  0  0  0  0  0  0  0  0  0
   -1.3370   -0.6420   -2.2630 H   0  0  0  0  0  0  0  0  0  0  0  0
   -3.0220   -0.9840   -1.8010 H   0  0  0  0  0  0  0  0  0  0  0  0
   -6.3410   -5.4770   -6.0180 H   0  0  0  0  0  0  0  0  0  0  0  0
   -5.3670   -6.8930   -6.2280 H   0  0  0  0  0  0  0  0  0  0  0  0
   -6.1120   -6.5370   -4.6260 H   0  0  0  0  0  0  0  0  0  0  0  0
   -1.9060  -14.3890   -3.9140 H   0  0  0  0  0  0  0  0  0  0  0  0
   -3.5740  -14.6040   -4.3790 H   0  0  0  0  0  0  0  0  0  0  0  0
   -2.3280  -13.8500   -1.4120 H   0  0  0  0  0  0  0  0  0  0  0  0
    0.9740    7.4630    7.0710 H   0  0  0  0  0  0  0  0  0  0  0  0
   -0.8540    2.6720    2.1260 H   0  0  0  0  0  0  0  0  0  0  0  0
    3.2120    7.8690   -5.0470 H   0  0  0  0  0  0  0  0  0  0  0  0
    4.3460    9.4440   -3.6010 H   0  0  0  0  0  0  0  0  0  0  0  0
    4.8510   10.2960   -1.3760 H   0  0  0  0  0  0  0  0  0  0  0  0
    4.5710   10.2260    1.0140 H   0  0  0  0  0  0  0  0  0  0  0  0
   -0.0630    6.4900    9.0450 H   0  0  0  0  0  0  0  0  0  0  0  0
   -1.3710    4.6800   10.0810 H   0  0  0  0  0  0  0  0  0  0  0  0
   -2.1810    2.7890    8.7190 H   0  0  0  0  0  0  0  0  0  0  0  0
   -2.3330    1.6470    6.5260 H   0  0  0  0  0  0  0  0  0  0  0  0
    0.9050    3.4690   -1.8200 H   0  0  0  0  0  0  0  0  0  0  0  0
   -0.1580    4.8880   -3.3960 H   0  0  0  0  0  0  0  0  0  0  0  0
    0.8090    3.6990   -4.2270 H   0  0  0  0  0  0  0  0  0  0  0  0
    5.7430    7.8280    3.2230 H   0  0  0  0  0  0  0  0  0  0  0  0
    4.5200    7.3280    4.4020 H   0  0  0  0  0  0  0  0  0  0  0  0
    3.6500    4.2930   -2.8280 H   0  0  0  0  0  0  0  0  0  0  0  0
    2.8340    2.7700   -3.1240 H   0  0  0  0  0  0  0  0  0  0  0  0
    6.4140    9.7120    4.6990 H   0  0  0  0  0  0  0  0  0  0  0  0
    6.4460    8.1850    5.6090 H   0  0  0  0  0  0  0  0  0  0  0  0
    5.1130    9.3310    5.8340 H   0  0  0  0  0  0  0  0  0  0  0  0
   -0.2010    6.9920   -4.4270 H   0  0  0  0  0  0  0  0  0  0  0  0
   -0.0660    5.8640   -5.7930 H   0  0  0  0  0  0  0  0  0  0  0  0
    0.9200    7.3360   -5.7480 H   0  0  0  0  0  0  0  0  0  0  0  0
    3.4390    4.6780   -4.9790 H   0  0  0  0  0  0  0  0  0  0  0  0
    2.0490    4.3630   -6.0240 H   0  0  0  0  0  0  0  0  0  0  0  0
    2.9080    5.8930   -6.1380 H   0  0  0  0  0  0  0  0  0  0  0  0
   -0.3510    2.7580   -0.2780 H   0  0  0  0  0  0  0  0  0  0  0  0
   -0.9180    4.2420   -1.1300 H   0  0  0  0  0  0  0  0  0  0  0  0
   -1.6850    3.7670    0.3310 H   0  0  0  0  0  0  0  0  0  0  0  0
    2.7790    8.8970    5.8260 H   0  0  0  0  0  0  0  0  0  0  0  0
    1.0320    9.2240    5.8760 H   0  0  0  0  0  0  0  0  0  0  0  0
    1.9300    9.8660    4.5600 H   0  0  0  0  0  0  0  0  0  0  0  0
    4.0790   -3.4010    5.3090 H   0  0  0  0  0  0  0  0  0  0  0  0
    6.4160    0.5700    4.4530 H   0  0  0  0  0  0  0  0  0  0  0  0
    2.9950   -2.3830    1.2910 H   0  0  0  0  0  0  0  0  0  0  0  0
    5.5070   -1.4120    5.4350 H   0  0  0  0  0  0  0  0  0  0  0  0
    7.3450    2.5680    3.6570 H   0  0  0  0  0  0  0  0  0  0  0  0
    3.7120   -1.2390   -0.3640 H   0  0  0  0  0  0  0  0  0  0  0  0
    5.1710    0.0110   -1.5350 H   0  0  0  0  0  0  0  0  0  0  0  0
    8.7790    5.7120    0.4810 H   0  0  0  0  0  0  0  0  0  0  0  0
    9.9130    4.9750    1.6630 H   0  0  0  0  0  0  0  0  0  0  0  0
    9.1670    3.9760    0.4120 H   0  0  0  0  0  0  0  0  0  0  0  0
    2.1450   -4.3980    2.1930 H   0  0  0  0  0  0  0  0  0  0  0  0
    6.1900    5.1720    0.1270 H   0  0  0  0  0  0  0  0  0  0  0  0
    6.5910    1.8620   -2.1860 H   0  0  0  0  0  0  0  0  0  0  0  0
    5.2260    2.1400   -3.2620 H   0  0  0  0  0  0  0  0  0  0  0  0
    5.8710    3.4680   -2.3610 H   0  0  0  0  0  0  0  0  0  0  0  0
    1.7610   -0.4470    1.0470 H   0  0  0  0  0  0  0  0  0  0  0  0
    1.8540    1.1200    0.2890 H   0  0  0  0  0  0  0  0  0  0  0  0
    1.5270   -0.3180   -0.6940 H   0  0  0  0  0  0  0  0  0  0  0  0
    2.3490    0.7170   -2.4780 H   0  0  0  0  0  0  0  0  0  0  0  0
    3.7940    0.6740   -3.4930 H   0  0  0  0  0  0  0  0  0  0  0  0
    3.2330   -0.7970   -2.7210 H   0  0  0  0  0  0  0  0  0  0  0  0
    2.6800    2.6980   -0.4480 H   0  0  0  0  0  0  0  0  0  0  0  0
    3.8160    3.9890   -0.5310 H   0  0  0  0  0  0  0  0  0  0  0  0
  1  2  2  0
  1  4  1  0
  1 10  1  0
  2  5  1  0
  2 13  1  0
  3  6  2  0
  3  7  1  0
  3136  1  0
  4  8  2  0
  4 19  1  0
  5  9  2  0
  5 28  1  0
  6  8  1  0
  6 21  1  0
  7  9  1  0
  7 26  1  0
  7137  1  6
  8  9  1  0
 10 11  2  0
 10 14  1  0
 11 12  1  0
 11 17  1  0
 12 13  2  0
 12 29  1  0
 13 22  1  0
 14 15  2  0
 14 18  1  0
 15 16  1  0
 15138  1  0
 16 17  2  0
 16 24  1  0
 17139  1  0
 18 19  2  0
 18140  1  0
 19 20  1  0
 20 21  1  0
 20 27  1  0
 20141  1  6
 21 25  1  0
 21142  1  1
 22 23  2  0
 22143  1  0
 24144  1  0
 25 56  1  0
 25145  1  0
 25146  1  0
 26102  1  0
 26147  1  0
 26148  1  0
 27149  1  0
 27150  1  0
 27151  1  0
 28152  1  0
 28153  1  0
 28154  1  0
 29155  1  0
 29156  1  0
 29157  1  0
 30 31  2  0
 30 34  1  0
 30 40  1  0
 31 35  1  0
 31 43  1  0
 32 33  1  0
 32 36  2  0
 32 44  1  0
 33 37  2  0
 33 47  1  0
 34 38  2  0
 34 48  1  0
 35 39  2  0
 35 51  1  0
 36 38  1  0
 36158  1  0
 37 39  1  0
 37159  1  0
 38 39  1  0
 40 41  2  0
 40 50  1  0
 41 42  1  0
 41 56  1  0
 42 43  2  0
 42 58  1  0
 43 53  1  0
 44 45  2  0
 44 54  1  0
 45 46  1  0
 45 60  1  0
 46 47  2  0
 46160  1  0
 47161  1  0
 48 49  1  0
 48162  1  0
 48163  1  0
 49 50  1  0
 49164  1  0
 49165  1  0
 50166  1  0
 50167  1  0
 51 52  1  0
 51 57  1  6
 51 59  1  0
 52 53  1  0
 52168  1  0
 52169  1  0
 53170  1  0
 53171  1  0
 54 55  2  0
 54172  1  0
 57173  1  0
 57174  1  0
 57175  1  0
 58176  1  0
 58177  1  0
 58178  1  0
 59179  1  0
 59180  1  0
 59181  1  0
 60 61  1  0
 60182  1  0
 60183  1  0
 61184  1  0
 62 64  2  0
 62 66  1  0
 62 84  1  0
 63 65  1  0
 63 67  2  0
 63 90  1  0
 64 74  1  0
 64 87  1  0
 65 75  2  0
 65 93  1  0
 66 76  2  0
 66 96  1  0
 67 77  1  0
 67185  1  0
 68 70  1  0
 68 74  2  0
 68 89  1  0
 69 71  2  0
 69 75  1  0
 69 95  1  0
 70 79  2  0
 70 99  1  0
 71 78  1  0
 71186  1  0
 72 76  1  0
 72 78  2  0
 72107  1  0
 73 77  2  0
 73 79  1  0
 73108  1  0
 74 80  1  0
 75 81  1  0
 76 80  1  0
 77 81  1  0
 78 83  1  0
 79 82  1  0
 80 82  2  0
 81 83  2  0
 82 83  1  0
 84 85  2  0
 84 98  1  0
 85 86  1  0
 85187  1  0
 86 87  2  0
 86188  1  0
 87 88  1  0
 88 89  2  0
 88189  1  0
 89190  1  0
 90 91  2  0
 90191  1  0
 91 92  1  0
 91192  1  0
 92 93  2  0
 92193  1  0
 93 94  1  0
 94 95  2  0
 94194  1  0
 95102  1  0
 96 97  1  0
 96103  1  0
 96195  1  1
 97 98  1  0
 97196  1  0
 97197  1  0
 98105  1  6
 98106  1  0
 99100  2  0
 99101  1  0
101104  1  0
101198  1  0
101199  1  0
103135  1  0
103200  1  0
103201  1  0
104202  1  0
104203  1  0
104204  1  0
105205  1  0
105206  1  0
105207  1  0
106208  1  0
106209  1  0
106210  1  0
107211  1  0
107212  1  0
107213  1  0
108214  1  0
108215  1  0
108216  1  0
109110  1  0
109113  2  0
109119  1  0
110114  2  0
110122  1  0
111112  2  0
111115  1  0
111129  1  0
112116  1  0
112217  1  0
113117  1  0
113123  1  0
114118  1  0
114218  1  0
115117  2  0
115219  1  0
116118  2  0
116220  1  0
117118  1  0
119120  2  0
119125  1  0
120121  1  0
120131  1  0
121122  2  0
121126  1  0
122221  1  0
123124  1  0
123133  1  0
123222  1  6
124125  1  0
124134  1  0
124223  1  6
125132  1  6
125135  1  0
126127  2  0
126128  1  0
128224  1  0
128225  1  0
128226  1  0
129130  2  0
129227  1  0
131228  1  0
132229  1  0
132230  1  0
132231  1  0
133232  1  0
133233  1  0
133234  1  0
134235  1  0
134236  1  0
134237  1  0
135238  1  0
135239  1  0
M  END
