
     RDKit          3D

 56 61  0  0  0  0  0  0  0  0999 V2000
    0.3230    4.7440   -0.3520 C   0  0  0  0  0  0  0  0  0  0  0  0
    1.3610    3.9500   -0.8610 C   0  0  0  0  0  0  0  0  0  0  0  0
    2.4100    3.5390   -0.0370 C   0  0  0  0  0  0  0  0  0  0  0  0
    2.4250    3.9300    1.2980 C   0  0  0  0  0  0  0  0  0  0  0  0
    1.4090    4.7220    1.8190 C   0  0  0  0  0  0  0  0  0  0  0  0
    0.3560    5.1260    0.9970 C   0  0  0  0  0  0  0  0  0  0  0  0
    3.4250    3.5440    2.1400 O   0  0  0  0  0  0  0  0  0  0  0  0
   -0.8280    5.1600   -1.2360 C   0  0  0  0  0  0  0  0  0  0  0  0
   -1.3970    1.6810   -1.3900 C   0  0  0  0  0  0  0  0  0  0  0  0
    0.4870   -3.8310    2.1230 C   0  0  0  0  0  0  0  0  0  0  0  0
   -1.1930    0.5320   -2.2370 C   0  0  0  0  0  0  0  0  0  0  0  0
    0.4160   -4.1040    0.7320 C   0  0  0  0  0  0  0  0  0  0  0  0
   -1.1810    1.5440    0.0090 C   0  0  0  0  0  0  0  0  0  0  0  0
    0.2040   -2.5510    2.6450 C   0  0  0  0  0  0  0  0  0  0  0  0
   -0.7810   -0.7250   -1.6720 C   0  0  0  0  0  0  0  0  0  0  0  0
    0.0380   -3.0690   -0.1620 C   0  0  0  0  0  0  0  0  0  0  0  0
   -0.4750   -0.0650    1.9790 C   0  0  1  0  0  0  0  0  0  0  0  0
   -0.7810    0.3350    0.5450 C   0  0  0  0  0  0  0  0  0  0  0  0
   -0.1310   -1.5310    1.7720 C   0  0  0  0  0  0  0  0  0  0  0  0
   -0.6010   -0.7380   -0.2920 C   0  0  0  0  0  0  0  0  0  0  0  0
   -0.2160   -1.8280    0.4210 C   0  0  0  0  0  0  0  0  0  0  0  0
   -0.5230   -1.9780   -2.3040 C   0  0  0  0  0  0  0  0  0  0  0  0
   -0.1230   -3.1220   -1.5690 C   0  0  0  0  0  0  0  0  0  0  0  0
   -1.7990    2.9120   -1.9840 C   0  0  0  0  0  0  0  0  0  0  0  0
   -1.9860    2.9900   -3.3770 C   0  0  0  0  0  0  0  0  0  0  0  0
   -1.7920    1.8830   -4.1880 C   0  0  0  0  0  0  0  0  0  0  0  0
   -1.4020    0.6730   -3.6230 C   0  0  0  0  0  0  0  0  0  0  0  0
    0.2320   -2.3410    4.1050 C   0  0  0  0  0  0  0  0  0  0  0  0
    0.6140   -3.2090    4.8800 O   0  0  0  0  0  0  0  0  0  0  0  0
    0.6750    0.7550    2.5520 C   0  0  0  0  0  0  0  0  0  0  0  0
    0.7190   -5.4890    0.2330 C   0  0  0  0  0  0  0  0  0  0  0  0
   -2.0230    4.1960   -1.1990 C   0  0  0  0  0  0  0  0  0  0  0  0
    1.3460    3.6310   -1.9010 H   0  0  0  0  0  0  0  0  0  0  0  0
    3.1950    2.9140   -0.4510 H   0  0  0  0  0  0  0  0  0  0  0  0
    1.4340    5.0190    2.8630 H   0  0  0  0  0  0  0  0  0  0  0  0
   -0.4370    5.7410    1.4160 H   0  0  0  0  0  0  0  0  0  0  0  0
    4.0620    3.0130    1.6350 H   0  0  0  0  0  0  0  0  0  0  0  0
   -0.4690    5.3000   -2.2640 H   0  0  0  0  0  0  0  0  0  0  0  0
   -1.1690    6.1520   -0.9090 H   0  0  0  0  0  0  0  0  0  0  0  0
    0.7550   -4.6320    2.8120 H   0  0  0  0  0  0  0  0  0  0  0  0
   -1.3080    2.3830    0.6860 H   0  0  0  0  0  0  0  0  0  0  0  0
   -1.3820    0.0220    2.5870 H   0  0  0  0  0  0  0  0  0  0  0  0
   -0.6330   -2.0810   -3.3810 H   0  0  0  0  0  0  0  0  0  0  0  0
    0.0550   -4.0510   -2.1050 H   0  0  0  0  0  0  0  0  0  0  0  0
   -2.2890    3.9290   -3.8380 H   0  0  0  0  0  0  0  0  0  0  0  0
   -1.9450    1.9590   -5.2610 H   0  0  0  0  0  0  0  0  0  0  0  0
   -1.2610   -0.1690   -4.2950 H   0  0  0  0  0  0  0  0  0  0  0  0
   -0.1190   -1.3660    4.4780 H   0  0  0  0  0  0  0  0  0  0  0  0
    0.9500    0.4220    3.5560 H   0  0  0  0  0  0  0  0  0  0  0  0
    1.5740    0.6870    1.9270 H   0  0  0  0  0  0  0  0  0  0  0  0
    0.3980    1.8120    2.6220 H   0  0  0  0  0  0  0  0  0  0  0  0
    1.5280   -5.4590   -0.5040 H   0  0  0  0  0  0  0  0  0  0  0  0
   -0.1730   -5.9300   -0.2230 H   0  0  0  0  0  0  0  0  0  0  0  0
    1.0390   -6.1490    1.0460 H   0  0  0  0  0  0  0  0  0  0  0  0
   -2.3380    3.9920   -0.1710 H   0  0  0  0  0  0  0  0  0  0  0  0
   -2.8860    4.7080   -1.6470 H   0  0  0  0  0  0  0  0  0  0  0  0
  1  2  2  0
  1  6  1  0
  1  8  1  0
  2  3  1  0
  2 33  1  0
  3  4  2  0
  3 34  1  0
  4  5  1  0
  4  7  1  0
  5  6  2  0
  5 35  1  0
  6 36  1  0
  7 37  1  0
  8 32  1  0
  8 38  1  0
  8 39  1  0
  9 11  2  0
  9 13  1  0
  9 24  1  0
 10 12  2  0
 10 14  1  0
 10 40  1  0
 11 15  1  0
 11 27  1  0
 12 16  1  0
 12 31  1  0
 13 18  2  0
 13 41  1  0
 14 19  2  0
 14 28  1  0
 15 20  2  0
 15 22  1  0
 16 21  2  0
 16 23  1  0
 17 18  1  0
 17 19  1  0
 17 30  1  0
 17 42  1  1
 18 20  1  0
 19 21  1  0
 20 21  1  0
 22 23  2  0
 22 43  1  0
 23 44  1  0
 24 25  2  0
 24 32  1  0
 25 26  1  0
 25 45  1  0
 26 27  2  0
 26 46  1  0
 27 47  1  0
 28 29  2  0
 28 48  1  0
 30 49  1  0
 30 50  1  0
 30 51  1  0
 31 52  1  0
 31 53  1  0
 31 54  1  0
 32 55  1  0
 32 56  1  0
M  END
