
     RDKit          3D

112124  0  0  0  0  0  0  0  0999 V2000
   -2.7060   -0.4450    2.9480 C   0  0  0  0  0  0  0  0  0  0  0  0
   -3.9650   -0.6040    3.6130 C   0  0  0  0  0  0  0  0  0  0  0  0
   -6.2470    6.8620    1.1660 C   0  0  0  0  0  0  0  0  0  0  0  0
   -2.4160    0.7270    2.2140 C   0  0  0  0  0  0  0  0  0  0  0  0
   -7.1670    6.1890    1.9250 N   0  0  0  0  0  0  0  0  0  0  0  0
   -4.9300    0.4530    3.5300 C   0  0  0  0  0  0  0  0  0  0  0  0
   -5.1540    6.0440    0.9980 C   0  0  0  0  0  0  0  0  0  0  0  0
   -7.2900    3.9130    3.0260 C   0  0  0  0  0  0  0  0  0  0  0  0
   -6.5990    2.7210    3.2390 C   0  0  0  0  0  0  0  0  0  0  0  0
   -3.3330    3.0950    1.4220 C   0  0  2  0  0  0  0  0  0  0  0  0
   -6.6890    4.9410    2.2570 C   0  0  0  0  0  0  0  0  0  0  0  0
   -3.3640    1.7310    2.1180 C   0  0  0  0  0  0  0  0  0  0  0  0
   -5.4150    4.8250    1.6800 C   0  0  0  0  0  0  0  0  0  0  0  0
   -4.5610    1.5640    2.7820 C   0  0  0  0  0  0  0  0  0  0  0  0
   -5.3470    2.6530    2.6440 C   0  0  0  0  0  0  0  0  0  0  0  0
   -4.7170    3.6270    1.8790 C   0  0  0  0  0  0  0  0  0  0  0  0
   -6.2200    0.5810    4.0960 C   0  0  0  0  0  0  0  0  0  0  0  0
   -7.0490    1.6690    3.9660 N   0  0  0  0  0  0  0  0  0  0  0  0
   -1.7460   -1.4650    3.0340 C   0  0  0  0  0  0  0  0  0  0  0  0
   -1.9960   -2.6290    3.7600 C   0  0  0  0  0  0  0  0  0  0  0  0
   -3.2150   -2.7950    4.4080 C   0  0  0  0  0  0  0  0  0  0  0  0
   -4.1880   -1.7950    4.3350 C   0  0  0  0  0  0  0  0  0  0  0  0
   -3.3490    3.0130   -0.1250 C   0  0  0  0  0  0  0  0  0  0  0  0
   -2.1980    2.3170   -0.8690 C   0  0  0  0  0  0  0  0  0  0  0  0
   -2.2360    3.9830    2.0060 C   0  0  0  0  0  0  0  0  0  0  0  0
    1.9030    1.4940    0.8300 C   0  0  0  0  0  0  0  0  0  0  0  0
    0.8290    1.6680   -0.0650 C   0  0  0  0  0  0  0  0  0  0  0  0
    0.2380    2.9250   -0.2310 C   0  0  0  0  0  0  0  0  0  0  0  0
    0.7210    4.0210    0.4010 N   0  0  0  0  0  0  0  0  0  0  0  0
    1.7770    3.8510    1.2340 C   0  0  0  0  0  0  0  0  0  0  0  0
    2.3880    2.6280    1.4990 C   0  0  0  0  0  0  0  0  0  0  0  0
    3.5430    2.5920    2.4380 C   0  0  0  0  0  0  0  0  0  0  0  0
    4.4960    1.8470    2.2210 O   0  0  0  0  0  0  0  0  0  0  0  0
    3.5260    3.4940    3.6580 C   0  0  0  0  0  0  0  0  0  0  0  0
    0.3940    0.5650   -0.7500 O   0  0  0  0  0  0  0  0  0  0  0  0
    4.5800    4.5900    3.5280 C   0  0  0  0  0  0  0  0  0  0  0  0
    4.5450    5.5430    4.7110 C   0  0  0  0  0  0  0  0  0  0  0  0
    2.4960    0.1090    0.9990 C   0  0  0  0  0  0  0  0  0  0  0  0
   -0.9450    3.1670   -1.1360 C   0  0  0  0  0  0  0  0  0  0  0  0
    1.6310   -3.4320   -2.6800 C   0  0  0  0  0  0  0  0  0  0  0  0
    1.5480   -3.5290   -4.1070 C   0  0  0  0  0  0  0  0  0  0  0  0
    5.6830   -1.4200   -3.5910 C   0  0  0  0  0  0  0  0  0  0  0  0
    2.7280   -2.7910   -2.0620 C   0  0  0  0  0  0  0  0  0  0  0  0
    2.6320   -2.9390   -4.8720 C   0  0  0  0  0  0  0  0  0  0  0  0
    5.0160   -1.7700   -2.4390 C   0  0  0  0  0  0  0  0  0  0  0  0
    4.8750   -1.7670   -4.6560 N   0  0  0  0  0  0  0  0  0  0  0  0
    3.7740   -2.3070   -2.8340 C   0  0  0  0  0  0  0  0  0  0  0  0
    3.7130   -2.3590   -4.2040 C   0  0  0  0  0  0  0  0  0  0  0  0
    0.6400   -3.9360   -1.7950 C   0  0  0  0  0  0  0  0  0  0  0  0
   -0.5060   -4.5700   -2.3130 C   0  0  0  0  0  0  0  0  0  0  0  0
   -0.6090   -4.7020   -3.7120 C   0  0  0  0  0  0  0  0  0  0  0  0
    0.3720   -4.1880   -4.5910 C   0  0  0  0  0  0  0  0  0  0  0  0
    0.7990   -3.7950   -0.3800 C   0  0  0  0  0  0  0  0  0  0  0  0
   -0.1880   -4.2860    0.4790 C   0  0  0  0  0  0  0  0  0  0  0  0
   -1.3320   -4.8870   -0.0270 C   0  0  0  0  0  0  0  0  0  0  0  0
   -1.4930   -5.0210   -1.4040 C   0  0  0  0  0  0  0  0  0  0  0  0
    1.9190   -3.1370    0.1580 C   0  0  0  0  0  0  0  0  0  0  0  0
    2.8880   -2.5870   -0.6750 C   0  0  0  0  0  0  0  0  0  0  0  0
    4.0120   -1.6730   -0.1280 C   0  0  1  0  0  0  0  0  0  0  0  0
    5.3500   -1.7390   -0.9790 C   0  0  1  0  0  0  0  0  0  0  0  0
    0.0920   -4.4120   -6.0310 C   0  0  0  0  0  0  0  0  0  0  0  0
    0.9760   -4.5150   -6.8750 O   0  0  0  0  0  0  0  0  0  0  0  0
   -1.6750   -5.3800   -4.2640 O   0  0  0  0  0  0  0  0  0  0  0  0
    2.7050   -2.8930   -6.2330 O   0  0  0  0  0  0  0  0  0  0  0  0
    6.1650   -2.9790   -0.5890 C   0  0  0  0  0  0  0  0  0  0  0  0
    3.5170   -0.1990   -0.1050 C   0  0  0  0  0  0  0  0  0  0  0  0
   -6.4480    7.8640    0.8130 H   0  0  0  0  0  0  0  0  0  0  0  0
   -1.4480    0.8410    1.7350 H   0  0  0  0  0  0  0  0  0  0  0  0
   -8.0670    6.5530    2.2090 H   0  0  0  0  0  0  0  0  0  0  0  0
   -4.2590    6.2980    0.4450 H   0  0  0  0  0  0  0  0  0  0  0  0
   -8.2770    4.0420    3.4590 H   0  0  0  0  0  0  0  0  0  0  0  0
   -6.6440   -0.2140    4.7020 H   0  0  0  0  0  0  0  0  0  0  0  0
   -0.7870   -1.3570    2.5320 H   0  0  0  0  0  0  0  0  0  0  0  0
   -1.2370   -3.4040    3.8230 H   0  0  0  0  0  0  0  0  0  0  0  0
   -3.4090   -3.7000    4.9780 H   0  0  0  0  0  0  0  0  0  0  0  0
   -5.1260   -1.9590    4.8610 H   0  0  0  0  0  0  0  0  0  0  0  0
   -3.4700    4.0210   -0.5450 H   0  0  0  0  0  0  0  0  0  0  0  0
   -4.2620    2.4730   -0.4210 H   0  0  0  0  0  0  0  0  0  0  0  0
   -2.6030    2.0730   -1.8610 H   0  0  0  0  0  0  0  0  0  0  0  0
   -1.9710    1.3510   -0.4170 H   0  0  0  0  0  0  0  0  0  0  0  0
   -2.1580    4.9330    1.4670 H   0  0  0  0  0  0  0  0  0  0  0  0
   -1.2650    3.4870    1.9800 H   0  0  0  0  0  0  0  0  0  0  0  0
   -2.4260    4.2240    3.0590 H   0  0  0  0  0  0  0  0  0  0  0  0
    2.1260    4.7780    1.6810 H   0  0  0  0  0  0  0  0  0  0  0  0
    3.7300    2.8680    4.5350 H   0  0  0  0  0  0  0  0  0  0  0  0
    2.5290    3.9190    3.8170 H   0  0  0  0  0  0  0  0  0  0  0  0
    0.0680    0.8380   -1.6250 H   0  0  0  0  0  0  0  0  0  0  0  0
    4.4220    5.1580    2.6030 H   0  0  0  0  0  0  0  0  0  0  0  0
    5.5780    4.1410    3.4530 H   0  0  0  0  0  0  0  0  0  0  0  0
    5.3110    6.3170    4.5970 H   0  0  0  0  0  0  0  0  0  0  0  0
    4.7350    5.0120    5.6500 H   0  0  0  0  0  0  0  0  0  0  0  0
    3.5730    6.0390    4.7860 H   0  0  0  0  0  0  0  0  0  0  0  0
    1.6710   -0.6100    0.9940 H   0  0  0  0  0  0  0  0  0  0  0  0
    2.9480   -0.0110    1.9900 H   0  0  0  0  0  0  0  0  0  0  0  0
   -0.5970    2.9650   -2.1580 H   0  0  0  0  0  0  0  0  0  0  0  0
   -1.2070    4.2320   -1.1220 H   0  0  0  0  0  0  0  0  0  0  0  0
    6.6570   -0.9810   -3.7590 H   0  0  0  0  0  0  0  0  0  0  0  0
    5.1000   -1.6580   -5.6360 H   0  0  0  0  0  0  0  0  0  0  0  0
   -0.0820   -4.1860    1.5570 H   0  0  0  0  0  0  0  0  0  0  0  0
   -2.1060   -5.2400    0.6510 H   0  0  0  0  0  0  0  0  0  0  0  0
   -2.4210   -5.4650   -1.7540 H   0  0  0  0  0  0  0  0  0  0  0  0
    2.0100   -3.0110    1.2350 H   0  0  0  0  0  0  0  0  0  0  0  0
    4.2490   -1.9760    0.9010 H   0  0  0  0  0  0  0  0  0  0  0  0
    5.9690   -0.8590   -0.7630 H   0  0  0  0  0  0  0  0  0  0  0  0
   -0.9660   -4.5090   -6.3270 H   0  0  0  0  0  0  0  0  0  0  0  0
   -1.9450   -6.0850   -3.6510 H   0  0  0  0  0  0  0  0  0  0  0  0
    2.1460   -3.6000   -6.6200 H   0  0  0  0  0  0  0  0  0  0  0  0
    5.6140   -3.9070   -0.7830 H   0  0  0  0  0  0  0  0  0  0  0  0
    6.4250   -2.9540    0.4750 H   0  0  0  0  0  0  0  0  0  0  0  0
    7.0990   -3.0260   -1.1600 H   0  0  0  0  0  0  0  0  0  0  0  0
    4.3770    0.4660    0.0400 H   0  0  0  0  0  0  0  0  0  0  0  0
    3.1000    0.0680   -1.0840 H   0  0  0  0  0  0  0  0  0  0  0  0
  1  2  2  0
  1  4  1  0
  1 19  1  0
  2  6  1  0
  2 22  1  0
  3  5  1  0
  3  7  2  0
  3 67  1  0
  4 12  2  0
  4 68  1  0
  5 11  1  0
  5 69  1  0
  6 14  2  0
  6 17  1  0
  7 13  1  0
  7 70  1  0
  8  9  1  0
  8 11  2  0
  8 71  1  0
  9 15  2  0
  9 18  1  0
 10 12  1  0
 10 16  1  0
 10 23  1  6
 10 25  1  0
 11 13  1  0
 12 14  1  0
 13 16  2  0
 14 15  1  0
 15 16  1  0
 17 18  2  0
 17 72  1  0
 19 20  2  0
 19 73  1  0
 20 21  1  0
 20 74  1  0
 21 22  2  0
 21 75  1  0
 22 76  1  0
 23 24  1  0
 23 77  1  0
 23 78  1  0
 24 39  1  0
 24 79  1  0
 24 80  1  0
 25 81  1  0
 25 82  1  0
 25 83  1  0
 26 27  2  0
 26 31  1  0
 26 38  1  0
 27 28  1  0
 27 35  1  0
 28 29  2  0
 28 39  1  0
 29 30  1  0
 30 31  2  0
 30 84  1  0
 31 32  1  0
 32 33  2  0
 32 34  1  0
 34 36  1  0
 34 85  1  0
 34 86  1  0
 35 87  1  0
 36 37  1  0
 36 88  1  0
 36 89  1  0
 37 90  1  0
 37 91  1  0
 37 92  1  0
 38 66  1  0
 38 93  1  0
 38 94  1  0
 39 95  1  0
 39 96  1  0
 40 41  2  0
 40 43  1  0
 40 49  1  0
 41 44  1  0
 41 52  1  0
 42 45  2  0
 42 46  1  0
 42 97  1  0
 43 47  2  0
 43 58  1  0
 44 48  2  0
 44 64  1  0
 45 47  1  0
 45 60  1  0
 46 48  1  0
 46 98  1  0
 47 48  1  0
 49 50  2  0
 49 53  1  0
 50 51  1  0
 50 56  1  0
 51 52  2  0
 51 63  1  0
 52 61  1  0
 53 54  2  0
 53 57  1  0
 54 55  1  0
 54 99  1  0
 55 56  2  0
 55100  1  0
 56101  1  0
 57 58  2  0
 57102  1  0
 58 59  1  0
 59 60  1  0
 59 66  1  0
 59103  1  1
 60 65  1  0
 60104  1  6
 61 62  2  0
 61105  1  0
 63106  1  0
 64107  1  0
 65108  1  0
 65109  1  0
 65110  1  0
 66111  1  0
 66112  1  0
M  END
