
     RDKit          3D

114130  0  0  0  0  0  0  0  0999 V2000
   -4.2390   -0.4390   -0.1060 C   0  0  0  0  0  0  0  0  0  0  0  0
   -3.7210   -1.1370    1.0110 C   0  0  0  0  0  0  0  0  0  0  0  0
   -1.9790    3.7250    1.4210 C   0  0  0  0  0  0  0  0  0  0  0  0
   -1.6640    3.1140    2.6400 C   0  0  0  0  0  0  0  0  0  0  0  0
   -3.8660    0.9180   -0.3030 C   0  0  0  0  0  0  0  0  0  0  0  0
   -3.1370   -0.3460    2.0490 C   0  0  0  0  0  0  0  0  0  0  0  0
   -2.6990    2.9890    0.4670 C   0  0  0  0  0  0  0  0  0  0  0  0
   -2.0660    1.7850    2.8530 C   0  0  0  0  0  0  0  0  0  0  0  0
   -3.1040    1.6420    0.6640 C   0  0  0  0  0  0  0  0  0  0  0  0
   -2.7630    1.0160    1.8790 C   0  0  0  0  0  0  0  0  0  0  0  0
   -5.1010   -1.1100   -1.0210 C   0  0  0  0  0  0  0  0  0  0  0  0
   -5.3160   -2.4850   -0.8880 C   0  0  0  0  0  0  0  0  0  0  0  0
   -4.6250   -3.2120    0.0650 C   0  0  0  0  0  0  0  0  0  0  0  0
   -3.7810   -2.5710    0.9800 C   0  0  0  0  0  0  0  0  0  0  0  0
   -1.5670    5.0480    1.1850 C   0  0  0  0  0  0  0  0  0  0  0  0
   -0.8560    5.7580    2.1550 C   0  0  0  0  0  0  0  0  0  0  0  0
   -0.5530    5.1540    3.3700 C   0  0  0  0  0  0  0  0  0  0  0  0
   -0.9520    3.8400    3.6120 C   0  0  0  0  0  0  0  0  0  0  0  0
   -4.2830    1.6120   -1.5920 C   0  0  0  0  0  0  0  0  0  0  0  0
   -4.7590    0.6650   -2.7100 C   0  0  1  0  0  0  0  0  0  0  0  0
   -5.8100   -0.2920   -2.1090 C   0  0  1  0  0  0  0  0  0  0  0  0
   -3.1530   -0.9480    3.4170 C   0  0  0  0  0  0  0  0  0  0  0  0
   -2.3040   -0.7800    4.2790 O   0  0  0  0  0  0  0  0  0  0  0  0
   -6.5490   -1.1210   -3.1640 C   0  0  0  0  0  0  0  0  0  0  0  0
   -5.2320    1.5220   -3.9100 C   0  0  0  0  0  0  0  0  0  0  0  0
   -2.8640   -3.4940    1.7830 C   0  0  0  0  0  0  0  0  0  0  0  0
   -3.1090   -0.7580   -5.6120 C   0  0  0  0  0  0  0  0  0  0  0  0
   -1.7590   -1.0730   -5.7760 C   0  0  0  0  0  0  0  0  0  0  0  0
   -0.8130   -0.0550   -5.8880 C   0  0  0  0  0  0  0  0  0  0  0  0
   -1.2190    1.2770   -5.8490 C   0  0  0  0  0  0  0  0  0  0  0  0
   -2.5690    1.5940   -5.6810 C   0  0  0  0  0  0  0  0  0  0  0  0
   -3.5260    0.5790   -5.5530 C   0  0  0  0  0  0  0  0  0  0  0  0
   -4.9790    0.9100   -5.3000 C   0  0  0  0  0  0  0  0  0  0  0  0
    1.4880   -3.0420    1.5510 C   0  0  0  0  0  0  0  0  0  0  0  0
    2.8770   -2.7480    1.7210 C   0  0  0  0  0  0  0  0  0  0  0  0
    5.8740    3.4800   -2.1690 C   0  0  0  0  0  0  0  0  0  0  0  0
    0.6600   -2.3370    0.5840 C   0  0  0  0  0  0  0  0  0  0  0  0
    4.7620    3.9850   -2.9210 C   0  0  0  0  0  0  0  0  0  0  0  0
    5.7770    2.3020   -1.3630 C   0  0  0  0  0  0  0  0  0  0  0  0
    3.4160   -1.7190    0.9630 C   0  0  0  0  0  0  0  0  0  0  0  0
    2.2020    3.5290   -3.4430 C   0  0  0  0  0  0  0  0  0  0  0  0
    1.3830    2.5350   -3.0200 C   0  0  0  0  0  0  0  0  0  0  0  0
    0.8570   -0.3160   -1.0750 N   0  0  0  0  0  0  0  0  0  0  0  0
    4.2750    0.5630   -0.6590 C   0  0  0  0  0  0  0  0  0  0  0  0
    3.5390    3.3230   -2.8800 C   0  0  0  0  0  0  0  0  0  0  0  0
    1.2610   -1.2870   -0.1390 C   0  0  0  0  0  0  0  0  0  0  0  0
    4.5340    1.6940   -1.3990 C   0  0  0  0  0  0  0  0  0  0  0  0
    2.5920   -1.0410    0.0800 C   0  0  0  0  0  0  0  0  0  0  0  0
    2.1750    1.6680   -2.1690 C   0  0  0  0  0  0  0  0  0  0  0  0
    2.9890    0.0280   -0.6880 C   0  0  0  0  0  0  0  0  0  0  0  0
    1.9160    0.5290   -1.4060 C   0  0  0  0  0  0  0  0  0  0  0  0
    3.4590    2.1940   -2.1320 C   0  0  0  0  0  0  0  0  0  0  0  0
    4.7540   -1.2130    0.9970 C   0  0  0  0  0  0  0  0  0  0  0  0
    5.1780   -0.0740    0.2080 C   0  0  0  0  0  0  0  0  0  0  0  0
    6.4500    0.5180    0.2880 C   0  0  0  0  0  0  0  0  0  0  0  0
    6.7490    1.6840   -0.4940 C   0  0  0  0  0  0  0  0  0  0  0  0
    0.9470   -4.0220    2.3930 C   0  0  0  0  0  0  0  0  0  0  0  0
    1.7800   -4.7090    3.2940 C   0  0  0  0  0  0  0  0  0  0  0  0
    3.1560   -4.4070    3.4090 C   0  0  0  0  0  0  0  0  0  0  0  0
    3.7550   -3.3900    2.6200 C   0  0  0  0  0  0  0  0  0  0  0  0
    5.1350   -2.9430    2.6370 C   0  0  0  0  0  0  0  0  0  0  0  0
    5.6290   -1.8720    1.8460 C   0  0  0  0  0  0  0  0  0  0  0  0
    7.0950   -1.4870    1.8000 C   0  0  0  0  0  0  0  0  0  0  0  0
    7.3900   -0.0280    1.3450 C   0  0  0  0  0  0  0  0  0  0  0  0
   -0.7830   -2.7470    0.4200 C   0  0  0  0  0  0  0  0  0  0  0  0
   -1.3540   -3.1470    1.7920 C   0  0  2  0  0  0  0  0  0  0  0  0
   -0.5340   -4.3340    2.3440 C   0  0  0  0  0  0  0  0  0  0  0  0
    3.8980   -5.1990    4.4280 C   0  0  0  0  0  0  0  0  0  0  0  0
    5.1050   -5.1450    4.6180 O   0  0  0  0  0  0  0  0  0  0  0  0
   -2.9480    3.5040   -0.4580 H   0  0  0  0  0  0  0  0  0  0  0  0
   -1.7840    1.3370    3.8030 H   0  0  0  0  0  0  0  0  0  0  0  0
   -5.9690   -3.0340   -1.5610 H   0  0  0  0  0  0  0  0  0  0  0  0
   -4.7330   -4.2950    0.0690 H   0  0  0  0  0  0  0  0  0  0  0  0
   -1.7890    5.5330    0.2390 H   0  0  0  0  0  0  0  0  0  0  0  0
   -0.5380    6.7780    1.9570 H   0  0  0  0  0  0  0  0  0  0  0  0
    0.0000    5.7030    4.1290 H   0  0  0  0  0  0  0  0  0  0  0  0
   -0.7000    3.3790    4.5650 H   0  0  0  0  0  0  0  0  0  0  0  0
   -5.0700    2.3400   -1.3530 H   0  0  0  0  0  0  0  0  0  0  0  0
   -3.4190    2.1520   -1.9990 H   0  0  0  0  0  0  0  0  0  0  0  0
   -3.8880    0.0670   -3.0120 H   0  0  0  0  0  0  0  0  0  0  0  0
   -6.5810    0.3030   -1.5950 H   0  0  0  0  0  0  0  0  0  0  0  0
   -4.0220   -1.5980    3.6210 H   0  0  0  0  0  0  0  0  0  0  0  0
   -7.0950   -0.4820   -3.8640 H   0  0  0  0  0  0  0  0  0  0  0  0
   -5.8610   -1.7560   -3.7320 H   0  0  0  0  0  0  0  0  0  0  0  0
   -7.3080   -1.7640   -2.7050 H   0  0  0  0  0  0  0  0  0  0  0  0
   -6.3000    1.7550   -3.8050 H   0  0  0  0  0  0  0  0  0  0  0  0
   -4.7210    2.4930   -3.8860 H   0  0  0  0  0  0  0  0  0  0  0  0
   -3.2390   -3.5710    2.8090 H   0  0  0  0  0  0  0  0  0  0  0  0
   -2.9580   -4.5100    1.3740 H   0  0  0  0  0  0  0  0  0  0  0  0
   -3.8310   -1.5670   -5.5140 H   0  0  0  0  0  0  0  0  0  0  0  0
   -1.4430   -2.1130   -5.8090 H   0  0  0  0  0  0  0  0  0  0  0  0
    0.2390   -0.3000   -6.0100 H   0  0  0  0  0  0  0  0  0  0  0  0
   -0.4830    2.0700   -5.9440 H   0  0  0  0  0  0  0  0  0  0  0  0
   -2.8680    2.6400   -5.6470 H   0  0  0  0  0  0  0  0  0  0  0  0
   -5.3060    1.6250   -6.0660 H   0  0  0  0  0  0  0  0  0  0  0  0
   -5.5980    0.0210   -5.4540 H   0  0  0  0  0  0  0  0  0  0  0  0
    6.8150    4.0260   -2.1980 H   0  0  0  0  0  0  0  0  0  0  0  0
    4.8760    4.8960   -3.5020 H   0  0  0  0  0  0  0  0  0  0  0  0
    1.9440    4.3560   -4.0850 H   0  0  0  0  0  0  0  0  0  0  0  0
    0.3380    2.4010   -3.2420 H   0  0  0  0  0  0  0  0  0  0  0  0
   -0.0890   -0.2070   -1.4110 H   0  0  0  0  0  0  0  0  0  0  0  0
    7.7310    2.1440   -0.4020 H   0  0  0  0  0  0  0  0  0  0  0  0
    1.3390   -5.4780    3.9260 H   0  0  0  0  0  0  0  0  0  0  0  0
    5.8490   -3.4450    3.2910 H   0  0  0  0  0  0  0  0  0  0  0  0
    7.5560   -1.6490    2.7810 H   0  0  0  0  0  0  0  0  0  0  0  0
    7.5830   -2.1760    1.0960 H   0  0  0  0  0  0  0  0  0  0  0  0
    8.4260    0.0290    0.9900 H   0  0  0  0  0  0  0  0  0  0  0  0
    7.3010    0.6310    2.2190 H   0  0  0  0  0  0  0  0  0  0  0  0
   -0.8360   -3.5860   -0.2850 H   0  0  0  0  0  0  0  0  0  0  0  0
   -1.3340   -1.9120   -0.0200 H   0  0  0  0  0  0  0  0  0  0  0  0
   -1.1940   -2.3050    2.4730 H   0  0  0  0  0  0  0  0  0  0  0  0
   -0.6750   -5.2260    1.7200 H   0  0  0  0  0  0  0  0  0  0  0  0
   -0.8900   -4.5730    3.3530 H   0  0  0  0  0  0  0  0  0  0  0  0
    3.2780   -5.8770    5.0440 H   0  0  0  0  0  0  0  0  0  0  0  0
  1  2  1  0
  1  5  2  0
  1 11  1  0
  2  6  2  0
  2 14  1  0
  3  4  2  0
  3  7  1  0
  3 15  1  0
  4  8  1  0
  4 18  1  0
  5  9  1  0
  5 19  1  0
  6 10  1  0
  6 22  1  0
  7  9  2  0
  7 70  1  0
  8 10  2  0
  8 71  1  0
  9 10  1  0
 11 12  2  0
 11 21  1  0
 12 13  1  0
 12 72  1  0
 13 14  2  0
 13 73  1  0
 14 26  1  0
 15 16  2  0
 15 74  1  0
 16 17  1  0
 16 75  1  0
 17 18  2  0
 17 76  1  0
 18 77  1  0
 19 20  1  0
 19 78  1  0
 19 79  1  0
 20 21  1  0
 20 25  1  0
 20 80  1  6
 21 24  1  0
 21 81  1  1
 22 23  2  0
 22 82  1  0
 24 83  1  0
 24 84  1  0
 24 85  1  0
 25 33  1  0
 25 86  1  0
 25 87  1  0
 26 66  1  0
 26 88  1  0
 26 89  1  0
 27 28  2  0
 27 32  1  0
 27 90  1  0
 28 29  1  0
 28 91  1  0
 29 30  2  0
 29 92  1  0
 30 31  1  0
 30 93  1  0
 31 32  2  0
 31 94  1  0
 32 33  1  0
 33 95  1  0
 33 96  1  0
 34 35  2  0
 34 37  1  0
 34 57  1  0
 35 40  1  0
 35 60  1  0
 36 38  2  0
 36 39  1  0
 36 97  1  0
 37 46  2  0
 37 65  1  0
 38 45  1  0
 38 98  1  0
 39 47  2  0
 39 56  1  0
 40 48  2  0
 40 53  1  0
 41 42  2  0
 41 45  1  0
 41 99  1  0
 42 49  1  0
 42100  1  0
 43 46  1  0
 43 51  1  0
 43101  1  0
 44 47  1  0
 44 50  2  0
 44 54  1  0
 45 52  2  0
 46 48  1  0
 47 52  1  0
 48 50  1  0
 49 51  2  0
 49 52  1  0
 50 51  1  0
 53 54  2  0
 53 62  1  0
 54 55  1  0
 55 56  2  0
 55 64  1  0
 56102  1  0
 57 58  2  0
 57 67  1  0
 58 59  1  0
 58103  1  0
 59 60  2  0
 59 68  1  0
 60 61  1  0
 61 62  2  0
 61104  1  0
 62 63  1  0
 63 64  1  0
 63105  1  0
 63106  1  0
 64107  1  0
 64108  1  0
 65 66  1  0
 65109  1  0
 65110  1  0
 66 67  1  0
 66111  1  1
 67112  1  0
 67113  1  0
 68 69  2  0
 68114  1  0
M  END
