
     RDKit          3D

 63 67  0  0  0  0  0  0  0  0999 V2000
    0.9190   -2.6720   -0.1810 C   0  0  0  0  0  0  0  0  0  0  0  0
    1.7700   -1.6960    0.3550 C   0  0  0  0  0  0  0  0  0  0  0  0
    2.8250   -1.1580   -0.3940 C   0  0  0  0  0  0  0  0  0  0  0  0
    3.0100   -1.6100   -1.7100 C   0  0  0  0  0  0  0  0  0  0  0  0
    2.1680   -2.5790   -2.2840 C   0  0  0  0  0  0  0  0  0  0  0  0
    1.1400   -3.1160   -1.4920 C   0  0  0  0  0  0  0  0  0  0  0  0
    0.2970   -4.0860   -1.9680 O   0  0  0  0  0  0  0  0  0  0  0  0
    4.0220   -1.1140   -2.4900 O   0  0  0  0  0  0  0  0  0  0  0  0
    3.6990   -0.1100    0.2340 C   0  0  0  0  0  0  0  0  0  0  0  0
    2.3870   -3.0360   -3.7000 C   0  0  0  0  0  0  0  0  0  0  0  0
   -0.2220   -3.2050    0.6540 C   0  0  0  0  0  0  0  0  0  0  0  0
   -1.6660    1.2600    0.8750 C   0  0  0  0  0  0  0  0  0  0  0  0
   -1.4870   -0.0230    0.2550 C   0  0  0  0  0  0  0  0  0  0  0  0
   -3.6340   -1.3350    4.1950 C   0  0  0  0  0  0  0  0  0  0  0  0
   -2.2780    1.2760    2.1480 C   0  0  0  0  0  0  0  0  0  0  0  0
   -1.8550   -1.2410    0.9300 C   0  0  0  0  0  0  0  0  0  0  0  0
   -3.3980   -0.0280    4.0180 C   0  0  0  0  0  0  0  0  0  0  0  0
   -3.0490   -2.2040    3.1040 C   0  0  1  0  0  0  0  0  0  0  0  0
   -2.6790    0.1060    2.7650 C   0  0  0  0  0  0  0  0  0  0  0  0
   -2.4610   -1.1450    2.1870 C   0  0  0  0  0  0  0  0  0  0  0  0
   -1.2450    2.4780    0.1890 C   0  0  0  0  0  0  0  0  0  0  0  0
   -0.7020    2.3740   -1.1110 C   0  0  0  0  0  0  0  0  0  0  0  0
   -0.5660    1.1290   -1.7120 C   0  0  0  0  0  0  0  0  0  0  0  0
   -0.9520   -0.0300   -1.0450 C   0  0  0  0  0  0  0  0  0  0  0  0
   -1.3020    3.8170    0.6580 C   0  0  0  0  0  0  0  0  0  0  0  0
   -0.9190    4.9340    0.0060 N   0  0  0  0  0  0  0  0  0  0  0  0
   -0.4280    4.7540   -1.2350 C   0  0  0  0  0  0  0  0  0  0  0  0
   -0.2960    3.5090   -1.8250 C   0  0  0  0  0  0  0  0  0  0  0  0
   -4.4200   -1.8670    5.3180 C   0  0  0  0  0  0  0  0  0  0  0  0
   -4.8120   -1.1760    6.2500 O   0  0  0  0  0  0  0  0  0  0  0  0
   -0.0230    5.9780   -1.9830 C   0  0  0  0  0  0  0  0  0  0  0  0
    0.3890    5.9000   -3.1390 O   0  0  0  0  0  0  0  0  0  0  0  0
   -0.1540    7.2990   -1.2710 C   0  0  0  0  0  0  0  0  0  0  0  0
   -1.7540    4.1380    1.8960 O   0  0  0  0  0  0  0  0  0  0  0  0
   -2.0300   -3.1840    3.6780 C   0  0  0  0  0  0  0  0  0  0  0  0
   -1.6060   -2.6160    0.3240 C   0  0  0  0  0  0  0  0  0  0  0  0
    1.5950   -1.3410    1.3700 H   0  0  0  0  0  0  0  0  0  0  0  0
    0.6960   -4.4910   -2.7550 H   0  0  0  0  0  0  0  0  0  0  0  0
    4.5220   -0.4500   -1.9910 H   0  0  0  0  0  0  0  0  0  0  0  0
    4.7440   -0.4360    0.2320 H   0  0  0  0  0  0  0  0  0  0  0  0
    3.6070    0.8350   -0.3110 H   0  0  0  0  0  0  0  0  0  0  0  0
    3.4190    0.0790    1.2770 H   0  0  0  0  0  0  0  0  0  0  0  0
    1.4330   -3.1110   -4.2320 H   0  0  0  0  0  0  0  0  0  0  0  0
    3.0000   -2.3370   -4.2780 H   0  0  0  0  0  0  0  0  0  0  0  0
    2.8820   -4.0130   -3.7040 H   0  0  0  0  0  0  0  0  0  0  0  0
    0.0180   -3.0520    1.7130 H   0  0  0  0  0  0  0  0  0  0  0  0
   -0.2610   -4.2940    0.5250 H   0  0  0  0  0  0  0  0  0  0  0  0
   -2.4890    2.2030    2.6690 H   0  0  0  0  0  0  0  0  0  0  0  0
   -3.7180    0.7890    4.6460 H   0  0  0  0  0  0  0  0  0  0  0  0
   -3.8580   -2.7350    2.5890 H   0  0  0  0  0  0  0  0  0  0  0  0
   -0.1500    1.0310   -2.7130 H   0  0  0  0  0  0  0  0  0  0  0  0
   -0.8180   -0.9590   -1.5930 H   0  0  0  0  0  0  0  0  0  0  0  0
    0.1130    3.4280   -2.8280 H   0  0  0  0  0  0  0  0  0  0  0  0
   -4.6440   -2.9450    5.2650 H   0  0  0  0  0  0  0  0  0  0  0  0
   -1.2020    7.4860   -1.0220 H   0  0  0  0  0  0  0  0  0  0  0  0
    0.1920    8.1020   -1.9280 H   0  0  0  0  0  0  0  0  0  0  0  0
    0.4640    7.3040   -0.3690 H   0  0  0  0  0  0  0  0  0  0  0  0
   -1.6300    5.1040    1.8850 H   0  0  0  0  0  0  0  0  0  0  0  0
   -1.6910   -3.8920    2.9190 H   0  0  0  0  0  0  0  0  0  0  0  0
   -2.4630   -3.7840    4.4860 H   0  0  0  0  0  0  0  0  0  0  0  0
   -1.1490   -2.6690    4.0760 H   0  0  0  0  0  0  0  0  0  0  0  0
   -1.7980   -2.6110   -0.7540 H   0  0  0  0  0  0  0  0  0  0  0  0
   -2.3690   -3.3030    0.7140 H   0  0  0  0  0  0  0  0  0  0  0  0
  1  2  2  0
  1  6  1  0
  1 11  1  0
  2  3  1  0
  2 37  1  0
  3  4  2  0
  3  9  1  0
  4  5  1  0
  4  8  1  0
  5  6  2  0
  5 10  1  0
  6  7  1  0
  7 38  1  0
  8 39  1  0
  9 40  1  0
  9 41  1  0
  9 42  1  0
 10 43  1  0
 10 44  1  0
 10 45  1  0
 11 36  1  0
 11 46  1  0
 11 47  1  0
 12 13  2  0
 12 15  1  0
 12 21  1  0
 13 16  1  0
 13 24  1  0
 14 17  2  0
 14 18  1  0
 14 29  1  0
 15 19  2  0
 15 48  1  0
 16 20  2  0
 16 36  1  0
 17 19  1  0
 17 49  1  0
 18 20  1  0
 18 35  1  0
 18 50  1  6
 19 20  1  0
 21 22  2  0
 21 25  1  0
 22 23  1  0
 22 28  1  0
 23 24  2  0
 23 51  1  0
 24 52  1  0
 25 26  2  0
 25 34  1  0
 26 27  1  0
 27 28  2  0
 27 31  1  0
 28 53  1  0
 29 30  2  0
 29 54  1  0
 31 32  2  0
 31 33  1  0
 33 55  1  0
 33 56  1  0
 33 57  1  0
 34 58  1  0
 35 59  1  0
 35 60  1  0
 35 61  1  0
 36 62  1  0
 36 63  1  0
M  END
