
     RDKit          3D

 70 76  0  0  0  0  0  0  0  0999 V2000
    4.5080    0.6840   -1.3280 C   0  0  0  0  0  0  0  0  0  0  0  0
    4.3720    1.9910   -1.8260 C   0  0  0  0  0  0  0  0  0  0  0  0
    2.7940   -0.8780   -5.7590 C   0  0  0  0  0  0  0  0  0  0  0  0
    2.6050    0.4490   -6.1000 C   0  0  0  0  0  0  0  0  0  0  0  0
    4.1050   -0.4230   -2.1450 C   0  0  0  0  0  0  0  0  0  0  0  0
    3.8420    2.1830   -3.1020 C   0  0  0  0  0  0  0  0  0  0  0  0
    3.3310   -1.2410   -4.5030 C   0  0  0  0  0  0  0  0  0  0  0  0
    2.9670    1.4330   -5.1960 C   0  0  0  0  0  0  0  0  0  0  0  0
    3.6460   -0.2370   -3.5100 C   0  0  0  0  0  0  0  0  0  0  0  0
    3.4850    1.1130   -3.9310 C   0  0  0  0  0  0  0  0  0  0  0  0
    5.0330    0.5290   -0.0190 C   0  0  0  0  0  0  0  0  0  0  0  0
    5.4260    1.6410    0.7420 C   0  0  0  0  0  0  0  0  0  0  0  0
    5.2810    2.9220    0.2300 C   0  0  0  0  0  0  0  0  0  0  0  0
    4.7540    3.0960   -1.0450 C   0  0  0  0  0  0  0  0  0  0  0  0
    4.1820   -1.8020   -1.5040 C   0  0  0  0  0  0  0  0  0  0  0  0
    4.1280   -1.8020    0.0390 C   0  0  1  0  0  0  0  0  0  0  0  0
    5.2030   -0.8500    0.5650 C   0  0  0  0  0  0  0  0  0  0  0  0
    2.6970   -1.4820    0.5360 C   0  0  0  0  0  0  0  0  0  0  0  0
    2.5150   -1.6220    2.0540 C   0  0  0  0  0  0  0  0  0  0  0  0
    1.0840   -1.2750    2.4750 C   0  0  0  0  0  0  0  0  0  0  0  0
    3.5420   -2.7220   -4.3150 C   0  0  0  0  0  0  0  0  0  0  0  0
   -5.4910    1.2620    1.9520 C   0  0  0  0  0  0  0  0  0  0  0  0
   -5.2440    0.2210    2.8690 C   0  0  0  0  0  0  0  0  0  0  0  0
   -0.6430    1.4970    1.0830 C   0  0  0  0  0  0  0  0  0  0  0  0
   -0.4370    0.4750    2.0010 C   0  0  0  0  0  0  0  0  0  0  0  0
   -4.3910    1.8590    1.2950 C   0  0  0  0  0  0  0  0  0  0  0  0
   -3.9230   -0.1950    3.1010 C   0  0  0  0  0  0  0  0  0  0  0  0
   -1.9350    1.9610    0.8250 C   0  0  0  0  0  0  0  0  0  0  0  0
   -1.5250   -0.0730    2.6780 C   0  0  0  0  0  0  0  0  0  0  0  0
   -3.0560    1.4250    1.5000 C   0  0  0  0  0  0  0  0  0  0  0  0
   -2.8330    0.3830    2.4300 C   0  0  0  0  0  0  0  0  0  0  0  0
   -6.8280    1.6670    1.7400 C   0  0  0  0  0  0  0  0  0  0  0  0
   -7.8980    1.0680    2.4180 C   0  0  0  0  0  0  0  0  0  0  0  0
   -7.6330    0.0300    3.3110 C   0  0  0  0  0  0  0  0  0  0  0  0
   -6.3190   -0.3840    3.5390 C   0  0  0  0  0  0  0  0  0  0  0  0
    0.8640    0.1080    2.1900 O   0  0  0  0  0  0  0  0  0  0  0  0
   -4.6630    2.9130    0.4470 O   0  0  0  0  0  0  0  0  0  0  0  0
   -9.3070    1.4990    2.1360 C   0  0  0  0  0  0  0  0  0  0  0  0
    2.5310   -1.6430   -6.4880 H   0  0  0  0  0  0  0  0  0  0  0  0
    2.1960    0.7150   -7.0710 H   0  0  0  0  0  0  0  0  0  0  0  0
    3.7180    3.2030   -3.4660 H   0  0  0  0  0  0  0  0  0  0  0  0
    2.8340    2.4730   -5.4920 H   0  0  0  0  0  0  0  0  0  0  0  0
    5.8370    1.5090    1.7390 H   0  0  0  0  0  0  0  0  0  0  0  0
    5.5770    3.7840    0.8210 H   0  0  0  0  0  0  0  0  0  0  0  0
    4.6440    4.1080   -1.4310 H   0  0  0  0  0  0  0  0  0  0  0  0
    3.3470   -2.4200   -1.8360 H   0  0  0  0  0  0  0  0  0  0  0  0
    5.1200   -2.2710   -1.8230 H   0  0  0  0  0  0  0  0  0  0  0  0
    4.3720   -2.8170    0.3820 H   0  0  0  0  0  0  0  0  0  0  0  0
    6.1970   -1.2170    0.2780 H   0  0  0  0  0  0  0  0  0  0  0  0
    5.1860   -0.8150    1.6590 H   0  0  0  0  0  0  0  0  0  0  0  0
    1.9950   -2.1700    0.0450 H   0  0  0  0  0  0  0  0  0  0  0  0
    2.4010   -0.4750    0.2230 H   0  0  0  0  0  0  0  0  0  0  0  0
    2.7470   -2.6480    2.3610 H   0  0  0  0  0  0  0  0  0  0  0  0
    3.2010   -0.9480    2.5760 H   0  0  0  0  0  0  0  0  0  0  0  0
    0.3780   -1.9190    1.9330 H   0  0  0  0  0  0  0  0  0  0  0  0
    0.9710   -1.4380    3.5530 H   0  0  0  0  0  0  0  0  0  0  0  0
    3.5550   -3.2450   -5.2800 H   0  0  0  0  0  0  0  0  0  0  0  0
    2.7280   -3.1540   -3.7280 H   0  0  0  0  0  0  0  0  0  0  0  0
    4.5140   -2.9320   -3.8630 H   0  0  0  0  0  0  0  0  0  0  0  0
    0.2050    1.9260    0.5530 H   0  0  0  0  0  0  0  0  0  0  0  0
   -3.7430   -0.9990    3.8150 H   0  0  0  0  0  0  0  0  0  0  0  0
   -2.0460    2.7330    0.0690 H   0  0  0  0  0  0  0  0  0  0  0  0
   -1.3650   -0.8530    3.4170 H   0  0  0  0  0  0  0  0  0  0  0  0
   -7.0320    2.4650    1.0270 H   0  0  0  0  0  0  0  0  0  0  0  0
   -8.4450   -0.4670    3.8370 H   0  0  0  0  0  0  0  0  0  0  0  0
   -6.1420   -1.1920    4.2450 H   0  0  0  0  0  0  0  0  0  0  0  0
   -3.9070    3.5200    0.4780 H   0  0  0  0  0  0  0  0  0  0  0  0
   -9.6740    1.0060    1.2300 H   0  0  0  0  0  0  0  0  0  0  0  0
   -9.3580    2.5850    1.9970 H   0  0  0  0  0  0  0  0  0  0  0  0
   -9.9730    1.2460    2.9680 H   0  0  0  0  0  0  0  0  0  0  0  0
  1  2  1  0
  1  5  2  0
  1 11  1  0
  2  6  2  0
  2 14  1  0
  3  4  2  0
  3  7  1  0
  3 39  1  0
  4  8  1  0
  4 40  1  0
  5  9  1  0
  5 15  1  0
  6 10  1  0
  6 41  1  0
  7  9  2  0
  7 21  1  0
  8 10  2  0
  8 42  1  0
  9 10  1  0
 11 12  2  0
 11 17  1  0
 12 13  1  0
 12 43  1  0
 13 14  2  0
 13 44  1  0
 14 45  1  0
 15 16  1  0
 15 46  1  0
 15 47  1  0
 16 17  1  0
 16 18  1  0
 16 48  1  1
 17 49  1  0
 17 50  1  0
 18 19  1  0
 18 51  1  0
 18 52  1  0
 19 20  1  0
 19 53  1  0
 19 54  1  0
 20 36  1  0
 20 55  1  0
 20 56  1  0
 21 57  1  0
 21 58  1  0
 21 59  1  0
 22 23  1  0
 22 26  2  0
 22 32  1  0
 23 27  2  0
 23 35  1  0
 24 25  2  0
 24 28  1  0
 24 60  1  0
 25 29  1  0
 25 36  1  0
 26 30  1  0
 26 37  1  0
 27 31  1  0
 27 61  1  0
 28 30  2  0
 28 62  1  0
 29 31  2  0
 29 63  1  0
 30 31  1  0
 32 33  2  0
 32 64  1  0
 33 34  1  0
 33 38  1  0
 34 35  2  0
 34 65  1  0
 35 66  1  0
 37 67  1  0
 38 68  1  0
 38 69  1  0
 38 70  1  0
M  END
