
     RDKit          3D

 62 66  0  0  0  0  0  0  0  0999 V2000
   -0.6100    1.5870    0.6470 C   0  0  0  0  0  0  0  0  0  0  0  0
    0.7570    1.8470    0.5680 C   0  0  0  0  0  0  0  0  0  0  0  0
    1.3040    2.3670   -0.6080 C   0  0  0  0  0  0  0  0  0  0  0  0
    0.5010    2.6340   -1.7340 C   0  0  0  0  0  0  0  0  0  0  0  0
   -0.8780    2.3610   -1.6470 C   0  0  0  0  0  0  0  0  0  0  0  0
   -1.4220    1.8520   -0.4560 C   0  0  0  0  0  0  0  0  0  0  0  0
   -1.8140    2.5710   -2.7800 C   0  0  0  0  0  0  0  0  0  0  0  0
   -3.0240    2.4070   -2.6660 O   0  0  0  0  0  0  0  0  0  0  0  0
    1.1890    3.1780   -2.9700 C   0  0  0  0  0  0  0  0  0  0  0  0
   -0.2390   -0.9390   -4.5300 C   0  0  0  0  0  0  0  0  0  0  0  0
   -0.7830   -0.5990   -5.7670 C   0  0  0  0  0  0  0  0  0  0  0  0
   -0.4380    0.6070   -6.3730 C   0  0  0  0  0  0  0  0  0  0  0  0
    0.4500    1.4780   -5.7400 C   0  0  0  0  0  0  0  0  0  0  0  0
    1.0010    1.1480   -4.4950 C   0  0  0  0  0  0  0  0  0  0  0  0
    0.6510   -0.0710   -3.8970 C   0  0  0  0  0  0  0  0  0  0  0  0
    1.9260    2.1080   -3.7890 C   0  0  0  0  0  0  0  0  0  0  0  0
    1.2750   -3.2240    2.8880 C   0  0  0  0  0  0  0  0  0  0  0  0
    0.4630   -2.8370    1.8020 C   0  0  0  0  0  0  0  0  0  0  0  0
    0.4060    1.1540    5.0050 C   0  0  0  0  0  0  0  0  0  0  0  0
   -0.3660    1.5420    3.9110 C   0  0  0  0  0  0  0  0  0  0  0  0
    1.4260   -2.3060    3.9580 C   0  0  0  0  0  0  0  0  0  0  0  0
   -0.1360   -1.5670    1.7990 C   0  0  0  0  0  0  0  0  0  0  0  0
    1.0080   -0.1060    5.0130 C   0  0  0  0  0  0  0  0  0  0  0  0
   -0.5190    0.6650    2.8270 C   0  0  0  0  0  0  0  0  0  0  0  0
    0.8420   -1.0180    3.9480 C   0  0  0  0  0  0  0  0  0  0  0  0
    0.0520   -0.6350    2.8430 C   0  0  0  0  0  0  0  0  0  0  0  0
    1.8960   -4.4950    2.8310 C   0  0  0  0  0  0  0  0  0  0  0  0
    1.6920   -5.3590    1.7530 C   0  0  0  0  0  0  0  0  0  0  0  0
    0.8710   -4.9730    0.7030 C   0  0  0  0  0  0  0  0  0  0  0  0
    0.2630   -3.7190    0.7260 C   0  0  0  0  0  0  0  0  0  0  0  0
   -1.0390    2.8670    3.9210 C   0  0  0  0  0  0  0  0  0  0  0  0
   -2.2290    2.9460    3.6290 O   0  0  0  0  0  0  0  0  0  0  0  0
   -0.2450    4.0890    4.3460 C   0  0  0  0  0  0  0  0  0  0  0  0
   -1.2700    1.0650    1.7420 O   0  0  0  0  0  0  0  0  0  0  0  0
    2.1540   -2.6550    5.0760 O   0  0  0  0  0  0  0  0  0  0  0  0
    0.9720    4.3320    3.4730 C   0  0  0  0  0  0  0  0  0  0  0  0
    1.4240    1.6520    1.4020 H   0  0  0  0  0  0  0  0  0  0  0  0
    2.3750    2.5610   -0.6410 H   0  0  0  0  0  0  0  0  0  0  0  0
   -2.4900    1.6500   -0.3870 H   0  0  0  0  0  0  0  0  0  0  0  0
   -1.3930    2.8850   -3.7440 H   0  0  0  0  0  0  0  0  0  0  0  0
    1.9250    3.9240   -2.6390 H   0  0  0  0  0  0  0  0  0  0  0  0
    0.4950    3.7440   -3.5980 H   0  0  0  0  0  0  0  0  0  0  0  0
   -0.5130   -1.8780   -4.0560 H   0  0  0  0  0  0  0  0  0  0  0  0
   -1.4810   -1.2740   -6.2580 H   0  0  0  0  0  0  0  0  0  0  0  0
   -0.8640    0.8710   -7.3380 H   0  0  0  0  0  0  0  0  0  0  0  0
    0.7040    2.4180   -6.2250 H   0  0  0  0  0  0  0  0  0  0  0  0
    1.0610   -0.3480   -2.9280 H   0  0  0  0  0  0  0  0  0  0  0  0
    2.5510    2.6050   -4.5420 H   0  0  0  0  0  0  0  0  0  0  0  0
    2.6240    1.5460   -3.1540 H   0  0  0  0  0  0  0  0  0  0  0  0
    0.5330    1.8010    5.8680 H   0  0  0  0  0  0  0  0  0  0  0  0
   -0.7640   -1.2910    0.9520 H   0  0  0  0  0  0  0  0  0  0  0  0
    1.6070   -0.3910    5.8790 H   0  0  0  0  0  0  0  0  0  0  0  0
    2.5680   -4.8260    3.6190 H   0  0  0  0  0  0  0  0  0  0  0  0
    2.1810   -6.3300    1.7320 H   0  0  0  0  0  0  0  0  0  0  0  0
    0.7090   -5.6410   -0.1400 H   0  0  0  0  0  0  0  0  0  0  0  0
   -0.3710   -3.4300   -0.1100 H   0  0  0  0  0  0  0  0  0  0  0  0
    0.0330    4.0010    5.4010 H   0  0  0  0  0  0  0  0  0  0  0  0
   -0.9110    4.9570    4.2700 H   0  0  0  0  0  0  0  0  0  0  0  0
    2.0380   -3.6090    5.2150 H   0  0  0  0  0  0  0  0  0  0  0  0
    0.6880    4.4060    2.4180 H   0  0  0  0  0  0  0  0  0  0  0  0
    1.7060    3.5250    3.5670 H   0  0  0  0  0  0  0  0  0  0  0  0
    1.4630    5.2670    3.7620 H   0  0  0  0  0  0  0  0  0  0  0  0
  1  2  2  0
  1  6  1  0
  1 34  1  0
  2  3  1  0
  2 37  1  0
  3  4  2  0
  3 38  1  0
  4  5  1  0
  4  9  1  0
  5  6  2  0
  5  7  1  0
  6 39  1  0
  7  8  2  0
  7 40  1  0
  9 16  1  0
  9 41  1  0
  9 42  1  0
 10 11  2  0
 10 15  1  0
 10 43  1  0
 11 12  1  0
 11 44  1  0
 12 13  2  0
 12 45  1  0
 13 14  1  0
 13 46  1  0
 14 15  2  0
 14 16  1  0
 15 47  1  0
 16 48  1  0
 16 49  1  0
 17 18  1  0
 17 21  2  0
 17 27  1  0
 18 22  2  0
 18 30  1  0
 19 20  2  0
 19 23  1  0
 19 50  1  0
 20 24  1  0
 20 31  1  0
 21 25  1  0
 21 35  1  0
 22 26  1  0
 22 51  1  0
 23 25  2  0
 23 52  1  0
 24 26  2  0
 24 34  1  0
 25 26  1  0
 27 28  2  0
 27 53  1  0
 28 29  1  0
 28 54  1  0
 29 30  2  0
 29 55  1  0
 30 56  1  0
 31 32  2  0
 31 33  1  0
 33 36  1  0
 33 57  1  0
 33 58  1  0
 35 59  1  0
 36 60  1  0
 36 61  1  0
 36 62  1  0
M  END
