
     RDKit          3D

 64 73  0  0  0  0  0  0  0  0999 V2000
    3.7610   -1.4280   -1.8130 C   0  0  0  0  0  0  0  0  0  0  0  0
   -1.9120    1.1940    3.4010 C   0  0  0  0  0  0  0  0  0  0  0  0
    3.6700   -1.1430   -0.4400 C   0  0  0  0  0  0  0  0  0  0  0  0
   -0.5640    0.7620    3.5180 C   0  0  0  0  0  0  0  0  0  0  0  0
    2.6360   -1.2280   -2.6450 C   0  0  0  0  0  0  0  0  0  0  0  0
   -2.5150    1.2340    2.1280 C   0  0  0  0  0  0  0  0  0  0  0  0
    2.4570   -0.6660    0.0820 C   0  0  0  0  0  0  0  0  0  0  0  0
    0.1600    0.3600    2.3760 C   0  0  0  0  0  0  0  0  0  0  0  0
    0.3070   -0.5520   -2.9820 C   0  0  0  0  0  0  0  0  0  0  0  0
   -0.9260   -0.0690   -2.4950 C   0  0  0  0  0  0  0  0  0  0  0  0
   -2.2370    0.7310   -0.4060 C   0  0  0  0  0  0  0  0  0  0  0  0
    1.4130   -0.7440   -2.1020 C   0  0  0  0  0  0  0  0  0  0  0  0
   -1.7680    0.8110    1.0240 C   0  0  0  0  0  0  0  0  0  0  0  0
   -1.0170    0.2020   -1.1280 C   0  0  0  0  0  0  0  0  0  0  0  0
    1.3040   -0.4600   -0.7090 C   0  0  0  0  0  0  0  0  0  0  0  0
   -0.4280    0.3790    1.1200 C   0  0  0  0  0  0  0  0  0  0  0  0
    0.0600    0.0100   -0.2210 C   0  0  0  0  0  0  0  0  0  0  0  0
    4.9810   -1.9100   -2.3500 C   0  0  0  0  0  0  0  0  0  0  0  0
    6.0840   -2.0980   -1.5070 C   0  0  0  0  0  0  0  0  0  0  0  0
    5.9910   -1.8140   -0.1470 C   0  0  0  0  0  0  0  0  0  0  0  0
    4.7920   -1.3390    0.3820 C   0  0  0  0  0  0  0  0  0  0  0  0
   -2.6170    1.5740    4.5680 C   0  0  0  0  0  0  0  0  0  0  0  0
   -1.9830    1.5300    5.8190 C   0  0  0  0  0  0  0  0  0  0  0  0
   -0.6610    1.1150    5.9250 C   0  0  0  0  0  0  0  0  0  0  0  0
    0.0410    0.7320    4.7840 C   0  0  0  0  0  0  0  0  0  0  0  0
    0.4320   -0.8400   -4.3640 C   0  0  0  0  0  0  0  0  0  0  0  0
   -0.6580   -0.6460   -5.2250 C   0  0  0  0  0  0  0  0  0  0  0  0
   -1.8690   -0.1690   -4.7380 C   0  0  0  0  0  0  0  0  0  0  0  0
   -2.0030    0.1190   -3.3830 C   0  0  0  0  0  0  0  0  0  0  0  0
    1.6470   -1.3180   -4.8640 C   0  0  0  0  0  0  0  0  0  0  0  0
    2.7470   -1.5150   -4.0250 C   0  0  0  0  0  0  0  0  0  0  0  0
    5.0630   -2.1880   -3.7180 C   0  0  0  0  0  0  0  0  0  0  0  0
    3.9580   -1.9920   -4.5450 C   0  0  0  0  0  0  0  0  0  0  0  0
   -3.9480    1.6750    1.9690 C   0  0  0  0  0  0  0  0  0  0  0  0
   -4.4180    2.5960    3.1060 C   0  0  1  0  0  0  0  0  0  0  0  0
   -4.0730    2.0030    4.4900 C   0  0  1  0  0  0  0  0  0  0  0  0
   -4.9810    0.8160    4.8360 C   0  0  0  0  0  0  0  0  0  0  0  0
   -3.8450    4.0130    2.9430 C   0  0  0  0  0  0  0  0  0  0  0  0
    2.4400   -0.4480    1.1390 H   0  0  0  0  0  0  0  0  0  0  0  0
    1.1760    0.0250    2.5210 H   0  0  0  0  0  0  0  0  0  0  0  0
   -2.5010    1.7250   -0.7810 H   0  0  0  0  0  0  0  0  0  0  0  0
   -3.0740    0.0320   -0.4950 H   0  0  0  0  0  0  0  0  0  0  0  0
    7.0270   -2.4680   -1.9040 H   0  0  0  0  0  0  0  0  0  0  0  0
    6.8510   -1.9620    0.5010 H   0  0  0  0  0  0  0  0  0  0  0  0
    4.7390   -1.1220    1.4470 H   0  0  0  0  0  0  0  0  0  0  0  0
   -2.5240    1.8180    6.7180 H   0  0  0  0  0  0  0  0  0  0  0  0
   -0.1760    1.0830    6.8970 H   0  0  0  0  0  0  0  0  0  0  0  0
    1.0730    0.4050    4.8930 H   0  0  0  0  0  0  0  0  0  0  0  0
   -0.5700   -0.8660   -6.2870 H   0  0  0  0  0  0  0  0  0  0  0  0
   -2.7080   -0.0210   -5.4130 H   0  0  0  0  0  0  0  0  0  0  0  0
   -2.9610    0.4900   -3.0270 H   0  0  0  0  0  0  0  0  0  0  0  0
    1.7380   -1.5390   -5.9260 H   0  0  0  0  0  0  0  0  0  0  0  0
    5.9880   -2.5590   -4.1530 H   0  0  0  0  0  0  0  0  0  0  0  0
    4.0540   -2.2160   -5.6050 H   0  0  0  0  0  0  0  0  0  0  0  0
   -4.5770    0.7760    1.9340 H   0  0  0  0  0  0  0  0  0  0  0  0
   -4.0840    2.1950    1.0140 H   0  0  0  0  0  0  0  0  0  0  0  0
   -5.5090    2.6990    3.0270 H   0  0  0  0  0  0  0  0  0  0  0  0
   -4.2480    2.7830    5.2440 H   0  0  0  0  0  0  0  0  0  0  0  0
   -4.7940    0.4630    5.8560 H   0  0  0  0  0  0  0  0  0  0  0  0
   -4.8210   -0.0350    4.1650 H   0  0  0  0  0  0  0  0  0  0  0  0
   -6.0360    1.1040    4.7750 H   0  0  0  0  0  0  0  0  0  0  0  0
   -4.1380    4.4370    1.9760 H   0  0  0  0  0  0  0  0  0  0  0  0
   -2.7530    4.0330    2.9990 H   0  0  0  0  0  0  0  0  0  0  0  0
   -4.2330    4.6750    3.7240 H   0  0  0  0  0  0  0  0  0  0  0  0
  1  3  1  0
  1  5  2  0
  1 18  1  0
  2  4  2  0
  2  6  1  0
  2 22  1  0
  3  7  2  0
  3 21  1  0
  4  8  1  0
  4 25  1  0
  5 12  1  0
  5 31  1  0
  6 13  2  0
  6 34  1  0
  7 15  1  0
  7 39  1  0
  8 16  2  0
  8 40  1  0
  9 10  2  0
  9 12  1  0
  9 26  1  0
 10 14  1  0
 10 29  1  0
 11 13  1  0
 11 14  1  0
 11 41  1  0
 11 42  1  0
 12 15  2  0
 13 16  1  0
 14 17  2  0
 15 17  1  0
 16 17  1  0
 18 19  2  0
 18 32  1  0
 19 20  1  0
 19 43  1  0
 20 21  2  0
 20 44  1  0
 21 45  1  0
 22 23  2  0
 22 36  1  0
 23 24  1  0
 23 46  1  0
 24 25  2  0
 24 47  1  0
 25 48  1  0
 26 27  2  0
 26 30  1  0
 27 28  1  0
 27 49  1  0
 28 29  2  0
 28 50  1  0
 29 51  1  0
 30 31  2  0
 30 52  1  0
 31 33  1  0
 32 33  2  0
 32 53  1  0
 33 54  1  0
 34 35  1  0
 34 55  1  0
 34 56  1  0
 35 36  1  0
 35 38  1  0
 35 57  1  1
 36 37  1  0
 36 58  1  1
 37 59  1  0
 37 60  1  0
 37 61  1  0
 38 62  1  0
 38 63  1  0
 38 64  1  0
M  END
