
     RDKit          3D

 67 71  0  0  0  0  0  0  0  0999 V2000
   -3.0660    1.4630    1.6980 N   0  0  0  0  0  0  0  0  0  0  0  0
   -3.4480    1.4820    0.4070 C   0  0  0  0  0  0  0  0  0  0  0  0
   -4.2820    2.4480   -0.1330 C   0  0  0  0  0  0  0  0  0  0  0  0
   -4.7760    3.4440    0.7030 C   0  0  0  0  0  0  0  0  0  0  0  0
   -4.3920    3.4570    2.0390 C   0  0  0  0  0  0  0  0  0  0  0  0
   -3.5260    2.4650    2.4850 C   0  0  0  0  0  0  0  0  0  0  0  0
   -3.0160    2.5050    3.8870 C   0  0  0  0  0  0  0  0  0  0  0  0
   -3.5380    3.2560    4.7100 O   0  0  0  0  0  0  0  0  0  0  0  0
   -1.8470    1.5980    4.2200 C   0  0  0  0  0  0  0  0  0  0  0  0
   -2.9370    0.5550   -0.4760 O   0  0  0  0  0  0  0  0  0  0  0  0
   -1.1630    1.9950    5.5180 C   0  0  0  0  0  0  0  0  0  0  0  0
    3.5390    1.3450    0.9590 C   0  0  0  0  0  0  0  0  0  0  0  0
    3.7390    0.7550    2.2050 C   0  0  0  0  0  0  0  0  0  0  0  0
   -1.0080   -0.4860    0.7410 C   0  0  0  0  0  0  0  0  0  0  0  0
   -0.7780   -1.1230    1.9690 C   0  0  0  0  0  0  0  0  0  0  0  0
    2.3390    1.1510    0.2600 C   0  0  0  0  0  0  0  0  0  0  0  0
    2.7270   -0.0510    2.7380 C   0  0  0  0  0  0  0  0  0  0  0  0
    0.0530    0.2190    0.1340 C   0  0  0  0  0  0  0  0  0  0  0  0
    0.4540   -1.0290    2.6340 C   0  0  0  0  0  0  0  0  0  0  0  0
    1.2930    0.3740    0.8140 C   0  0  0  0  0  0  0  0  0  0  0  0
    1.4940   -0.2480    2.0760 C   0  0  0  0  0  0  0  0  0  0  0  0
    2.1600    1.8460   -1.0680 C   0  0  0  0  0  0  0  0  0  0  0  0
    1.1910    1.0760   -1.9720 C   0  0  1  0  0  0  0  0  0  0  0  0
   -0.1340    0.8680   -1.2240 C   0  0  0  0  0  0  0  0  0  0  0  0
    0.9900    1.8380   -3.2940 C   0  0  0  0  0  0  0  0  0  0  0  0
    5.0320    0.9430    2.9390 C   0  0  0  0  0  0  0  0  0  0  0  0
    0.6010   -1.7370    3.9580 C   0  0  0  0  0  0  0  0  0  0  0  0
   -2.3960   -0.6240    0.1330 C   0  0  0  0  0  0  0  0  0  0  0  0
   -1.2350   -0.4230   -6.2280 C   0  0  0  0  0  0  0  0  0  0  0  0
   -1.8770    0.5430   -5.4540 C   0  0  0  0  0  0  0  0  0  0  0  0
   -1.1550    1.2800   -4.5140 C   0  0  0  0  0  0  0  0  0  0  0  0
    0.2180    1.0550   -4.3300 C   0  0  0  0  0  0  0  0  0  0  0  0
    0.8600    0.0830   -5.1120 C   0  0  0  0  0  0  0  0  0  0  0  0
    0.1330   -0.6500   -6.0570 C   0  0  0  0  0  0  0  0  0  0  0  0
    0.8300   -1.6570   -6.8820 C   0  0  0  0  0  0  0  0  0  0  0  0
    0.2440   -2.3490   -7.7050 O   0  0  0  0  0  0  0  0  0  0  0  0
   -4.5410    2.4240   -1.1870 H   0  0  0  0  0  0  0  0  0  0  0  0
   -5.4400    4.2110    0.3140 H   0  0  0  0  0  0  0  0  0  0  0  0
   -4.7400    4.2360    2.7110 H   0  0  0  0  0  0  0  0  0  0  0  0
   -2.2120    0.5680    4.2930 H   0  0  0  0  0  0  0  0  0  0  0  0
   -1.1050    1.6630    3.4160 H   0  0  0  0  0  0  0  0  0  0  0  0
   -0.2830    1.3670    5.6940 H   0  0  0  0  0  0  0  0  0  0  0  0
   -1.8380    1.8880    6.3750 H   0  0  0  0  0  0  0  0  0  0  0  0
   -0.8310    3.0390    5.4790 H   0  0  0  0  0  0  0  0  0  0  0  0
    4.3220    1.9650    0.5280 H   0  0  0  0  0  0  0  0  0  0  0  0
   -1.5840   -1.6940    2.4290 H   0  0  0  0  0  0  0  0  0  0  0  0
    2.9050   -0.5130    3.7080 H   0  0  0  0  0  0  0  0  0  0  0  0
    3.1300    1.9350   -1.5730 H   0  0  0  0  0  0  0  0  0  0  0  0
    1.7910    2.8630   -0.8800 H   0  0  0  0  0  0  0  0  0  0  0  0
    1.6270    0.0890   -2.1850 H   0  0  0  0  0  0  0  0  0  0  0  0
   -0.7750    0.2280   -1.8390 H   0  0  0  0  0  0  0  0  0  0  0  0
   -0.6390    1.8310   -1.0820 H   0  0  0  0  0  0  0  0  0  0  0  0
    1.9670    2.0980   -3.7240 H   0  0  0  0  0  0  0  0  0  0  0  0
    0.4910    2.7990   -3.1110 H   0  0  0  0  0  0  0  0  0  0  0  0
    4.8870    0.8350    4.0180 H   0  0  0  0  0  0  0  0  0  0  0  0
    5.4390    1.9450    2.7670 H   0  0  0  0  0  0  0  0  0  0  0  0
    5.7640    0.2010    2.6040 H   0  0  0  0  0  0  0  0  0  0  0  0
   -0.2520   -2.3920    4.1620 H   0  0  0  0  0  0  0  0  0  0  0  0
    0.6620   -1.0080    4.7700 H   0  0  0  0  0  0  0  0  0  0  0  0
    1.4930   -2.3700    3.9610 H   0  0  0  0  0  0  0  0  0  0  0  0
   -2.3270   -1.3810   -0.6580 H   0  0  0  0  0  0  0  0  0  0  0  0
   -3.1170   -1.0220    0.8600 H   0  0  0  0  0  0  0  0  0  0  0  0
   -1.7980   -0.9910   -6.9660 H   0  0  0  0  0  0  0  0  0  0  0  0
   -2.9420    0.7280   -5.5880 H   0  0  0  0  0  0  0  0  0  0  0  0
   -1.6740    2.0290   -3.9170 H   0  0  0  0  0  0  0  0  0  0  0  0
    1.9250   -0.0960   -4.9820 H   0  0  0  0  0  0  0  0  0  0  0  0
    1.9150   -1.7610   -6.7220 H   0  0  0  0  0  0  0  0  0  0  0  0
  1  2  2  0
  1  6  1  0
  2  3  1  0
  2 10  1  0
  3  4  2  0
  3 37  1  0
  4  5  1  0
  4 38  1  0
  5  6  2  0
  5 39  1  0
  6  7  1  0
  7  8  2  0
  7  9  1  0
  9 11  1  0
  9 40  1  0
  9 41  1  0
 10 28  1  0
 11 42  1  0
 11 43  1  0
 11 44  1  0
 12 13  2  0
 12 16  1  0
 12 45  1  0
 13 17  1  0
 13 26  1  0
 14 15  1  0
 14 18  2  0
 14 28  1  0
 15 19  2  0
 15 46  1  0
 16 20  2  0
 16 22  1  0
 17 21  2  0
 17 47  1  0
 18 20  1  0
 18 24  1  0
 19 21  1  0
 19 27  1  0
 20 21  1  0
 22 23  1  0
 22 48  1  0
 22 49  1  0
 23 24  1  0
 23 25  1  0
 23 50  1  6
 24 51  1  0
 24 52  1  0
 25 32  1  0
 25 53  1  0
 25 54  1  0
 26 55  1  0
 26 56  1  0
 26 57  1  0
 27 58  1  0
 27 59  1  0
 27 60  1  0
 28 61  1  0
 28 62  1  0
 29 30  2  0
 29 34  1  0
 29 63  1  0
 30 31  1  0
 30 64  1  0
 31 32  2  0
 31 65  1  0
 32 33  1  0
 33 34  2  0
 33 66  1  0
 34 35  1  0
 35 36  2  0
 35 67  1  0
M  END
