
     RDKit          3D

 20 20  0  0  0  0  0  0  0  0999 V2000
   -0.3230    0.7670   -0.0520 C   0  0  0  0  0  0  0  0  0  0  0  0
    0.1140   -0.1740    0.8840 C   0  0  0  0  0  0  0  0  0  0  0  0
   -0.0950   -1.5440    0.6990 C   0  0  0  0  0  0  0  0  0  0  0  0
   -0.7480   -1.9520   -0.4850 C   0  0  0  0  0  0  0  0  0  0  0  0
   -1.1760   -0.9970   -1.4270 C   0  0  0  0  0  0  0  0  0  0  0  0
   -0.9720    0.3670   -1.2100 C   0  0  0  0  0  0  0  0  0  0  0  0
   -0.9770   -3.4000   -0.7290 C   0  0  0  0  0  0  0  0  0  0  0  0
   -1.9590   -3.8480   -1.3060 O   0  0  0  0  0  0  0  0  0  0  0  0
    0.7620    0.2800    2.0020 O   0  0  0  0  0  0  0  0  0  0  0  0
   -1.7520   -1.3950   -2.6010 O   0  0  0  0  0  0  0  0  0  0  0  0
   -0.0760    2.0850    0.2200 O   0  0  0  0  0  0  0  0  0  0  0  0
    0.3780   -2.5310    1.7310 C   0  0  0  0  0  0  0  0  0  0  0  0
   -1.2930    1.0960   -1.9450 H   0  0  0  0  0  0  0  0  0  0  0  0
   -0.2150   -4.0840   -0.3210 H   0  0  0  0  0  0  0  0  0  0  0  0
    0.7790    1.2540    1.9060 H   0  0  0  0  0  0  0  0  0  0  0  0
   -2.2130   -0.6520   -3.0210 H   0  0  0  0  0  0  0  0  0  0  0  0
   -0.4320    2.6260   -0.5070 H   0  0  0  0  0  0  0  0  0  0  0  0
    0.6340   -2.0520    2.6810 H   0  0  0  0  0  0  0  0  0  0  0  0
   -0.4080   -3.2600    1.9570 H   0  0  0  0  0  0  0  0  0  0  0  0
    1.2670   -3.0560    1.3670 H   0  0  0  0  0  0  0  0  0  0  0  0
  1  2  2  0
  1  6  1  0
  1 11  1  0
  2  3  1  0
  2  9  1  0
  3  4  2  0
  3 12  1  0
  4  5  1  0
  4  7  1  0
  5  6  2  0
  5 10  1  0
  6 13  1  0
  7  8  2  0
  7 14  1  0
  9 15  1  0
 10 16  1  0
 11 17  1  0
 12 18  1  0
 12 19  1  0
 12 20  1  0
M  END
