
     RDKit          3D

152173  0  0  0  0  0  0  0  0999 V2000
   -3.8250   -4.4180    1.4010 C   0  0  0  0  0  0  0  0  0  0  0  0
   -4.0320   -3.0520    1.6890 C   0  0  0  0  0  0  0  0  0  0  0  0
   -3.2020   -3.2880   -3.4260 C   0  0  0  0  0  0  0  0  0  0  0  0
   -3.5970   -1.9700   -3.1360 C   0  0  0  0  0  0  0  0  0  0  0  0
   -3.5630   -4.8110    0.0620 C   0  0  0  0  0  0  0  0  0  0  0  0
   -3.9540   -2.0910    0.6440 C   0  0  0  0  0  0  0  0  0  0  0  0
   -3.1970   -4.1950   -2.3370 C   0  0  0  0  0  0  0  0  0  0  0  0
   -3.8330   -1.5920   -1.8020 C   0  0  0  0  0  0  0  0  0  0  0  0
   -3.5050   -3.8490   -0.9930 C   0  0  0  0  0  0  0  0  0  0  0  0
   -3.7630   -2.4940   -0.7100 C   0  0  0  0  0  0  0  0  0  0  0  0
   -3.8800   -5.3620    2.4620 C   0  0  0  0  0  0  0  0  0  0  0  0
   -4.1550   -4.9560    3.7720 C   0  0  0  0  0  0  0  0  0  0  0  0
   -4.3880   -3.6210    4.0500 C   0  0  0  0  0  0  0  0  0  0  0  0
   -4.3120   -2.6700    3.0240 C   0  0  0  0  0  0  0  0  0  0  0  0
   -2.8420   -3.6180   -4.7700 C   0  0  0  0  0  0  0  0  0  0  0  0
   -3.0620   -2.6790   -5.7960 C   0  0  0  0  0  0  0  0  0  0  0  0
   -3.5070   -1.3960   -5.4990 C   0  0  0  0  0  0  0  0  0  0  0  0
   -3.7410   -1.0370   -4.1760 C   0  0  0  0  0  0  0  0  0  0  0  0
   -3.3290   -6.2880   -0.2220 C   0  0  0  0  0  0  0  0  0  0  0  0
   -4.0020   -7.2020    0.7970 C   0  0  0  0  0  0  0  0  0  0  0  0
   -3.5980   -6.8200    2.2080 C   0  0  0  0  0  0  0  0  0  0  0  0
   -4.0850   -0.6130    0.9990 C   0  0  0  0  0  0  0  0  0  0  0  0
   -3.7070   -0.3260    2.4640 C   0  0  2  0  0  0  0  0  0  0  0  0
   -4.5640   -1.2220    3.3620 C   0  0  0  0  0  0  0  0  0  0  0  0
   -3.8590    1.1720    2.8010 C   0  0  0  0  0  0  0  0  0  0  0  0
   -3.4370    1.5400    4.2340 C   0  0  0  0  0  0  0  0  0  0  0  0
   -2.1240   -4.9120   -5.1320 C   0  0  0  0  0  0  0  0  0  0  0  0
    1.6680    0.8060    5.2680 C   0  0  0  0  0  0  0  0  0  0  0  0
    0.5940   -0.0430    4.9580 C   0  0  0  0  0  0  0  0  0  0  0  0
   -1.3140    4.7010    4.5050 C   0  0  0  0  0  0  0  0  0  0  0  0
   -2.4070    3.8640    4.2370 C   0  0  0  0  0  0  0  0  0  0  0  0
    1.4550    2.2090    5.2290 C   0  0  0  0  0  0  0  0  0  0  0  0
   -0.6510    0.5100    4.6240 C   0  0  0  0  0  0  0  0  0  0  0  0
   -0.0670    4.1500    4.8390 C   0  0  0  0  0  0  0  0  0  0  0  0
   -2.2150    2.4500    4.3300 C   0  0  0  0  0  0  0  0  0  0  0  0
    0.1750    2.7610    4.8820 C   0  0  0  0  0  0  0  0  0  0  0  0
   -0.9110    1.8990    4.5970 C   0  0  0  0  0  0  0  0  0  0  0  0
    2.9130    0.2290    5.6490 C   0  0  0  0  0  0  0  0  0  0  0  0
    3.0440   -1.1780    5.7620 C   0  0  0  0  0  0  0  0  0  0  0  0
    1.9620   -1.9950    5.4330 C   0  0  0  0  0  0  0  0  0  0  0  0
    0.7550   -1.4350    5.0210 C   0  0  0  0  0  0  0  0  0  0  0  0
   -1.5040    6.0850    4.4450 C   0  0  0  0  0  0  0  0  0  0  0  0
   -2.6680    6.6940    4.1350 N   0  0  0  0  0  0  0  0  0  0  0  0
   -3.7030    5.8830    3.8660 C   0  0  0  0  0  0  0  0  0  0  0  0
   -3.6270    4.4990    3.9070 C   0  0  0  0  0  0  0  0  0  0  0  0
    4.0400    1.0290    5.9180 C   0  0  0  0  0  0  0  0  0  0  0  0
    5.2460    0.4530    6.3470 C   0  0  0  0  0  0  0  0  0  0  0  0
    5.3470   -0.9250    6.4990 C   0  0  0  0  0  0  0  0  0  0  0  0
    4.2580   -1.7380    6.1940 C   0  0  0  0  0  0  0  0  0  0  0  0
    2.5800    3.0960    5.7330 C   0  0  0  0  0  0  0  0  0  0  0  0
    3.9830    2.4990    5.6150 C   0  0  0  0  0  0  0  0  0  0  0  0
    2.1240    2.3560   -2.1110 C   0  0  0  0  0  0  0  0  0  0  0  0
    1.9160    2.9750   -3.3660 C   0  0  0  0  0  0  0  0  0  0  0  0
    0.0780   -3.6230   -5.2250 C   0  0  0  0  0  0  0  0  0  0  0  0
    1.9490    0.9520   -1.9650 C   0  0  0  0  0  0  0  0  0  0  0  0
    1.4060    2.1940   -4.4670 C   0  0  0  0  0  0  0  0  0  0  0  0
    0.5830   -3.3760   -3.9590 C   0  0  0  0  0  0  0  0  0  0  0  0
    0.3490   -2.4980   -5.9870 N   0  0  0  0  0  0  0  0  0  0  0  0
    1.4130   -1.2090   -2.8900 C   0  0  0  0  0  0  0  0  0  0  0  0
    0.9760   -0.1090   -5.4310 C   0  0  0  0  0  0  0  0  0  0  0  0
    1.5710    0.1860   -3.0880 C   0  0  0  0  0  0  0  0  0  0  0  0
    1.3110    0.7730   -4.3610 C   0  0  0  0  0  0  0  0  0  0  0  0
    0.9790   -2.0160   -3.9410 C   0  0  0  0  0  0  0  0  0  0  0  0
    0.7790   -1.4710   -5.1840 C   0  0  0  0  0  0  0  0  0  0  0  0
    2.4830    3.1420   -0.9850 C   0  0  0  0  0  0  0  0  0  0  0  0
    2.6800    4.5420   -1.0990 C   0  0  0  0  0  0  0  0  0  0  0  0
    2.5720    5.1570   -2.3830 C   0  0  0  0  0  0  0  0  0  0  0  0
    2.2030    4.3670   -3.5020 C   0  0  0  0  0  0  0  0  0  0  0  0
    2.6240    2.5150    0.2750 C   0  0  0  0  0  0  0  0  0  0  0  0
    2.9290    3.2630    1.4150 C   0  0  0  0  0  0  0  0  0  0  0  0
    3.1080    4.6310    1.3260 C   0  0  0  0  0  0  0  0  0  0  0  0
    2.9930    5.2560    0.0870 C   0  0  0  0  0  0  0  0  0  0  0  0
    2.4630    1.1340    0.3930 C   0  0  0  0  0  0  0  0  0  0  0  0
    2.1550    0.3100   -0.7030 C   0  0  0  0  0  0  0  0  0  0  0  0
    2.0490   -1.1130   -0.5730 C   0  0  0  0  0  0  0  0  0  0  0  0
    1.6240   -1.8830   -1.6700 C   0  0  0  0  0  0  0  0  0  0  0  0
    2.8270    6.5370   -2.6060 C   0  0  0  0  0  0  0  0  0  0  0  0
    2.7620    7.1220   -3.8690 C   0  0  0  0  0  0  0  0  0  0  0  0
    2.4410    6.3390   -4.9590 C   0  0  0  0  0  0  0  0  0  0  0  0
    2.1560    4.9830   -4.7790 C   0  0  0  0  0  0  0  0  0  0  0  0
    0.8210    3.0590   -5.6060 C   0  0  1  0  0  0  0  0  0  0  0  0
    1.8370    4.1420   -5.9870 C   0  0  0  0  0  0  0  0  0  0  0  0
    1.5030   -3.4110   -1.6080 C   0  0  0  0  0  0  0  0  0  0  0  0
    0.5750   -4.1140   -2.6580 C   0  0  2  0  0  0  0  0  0  0  0  0
   -0.7420   -4.7360   -5.8060 C   0  0  0  0  0  0  0  0  0  0  0  0
    0.2310    2.4820   -6.8920 C   0  0  0  0  0  0  0  0  0  0  0  0
    0.9490   -5.5870   -2.7800 C   0  0  0  0  0  0  0  0  0  0  0  0
    2.3650   -1.8030    0.7380 C   0  0  0  0  0  0  0  0  0  0  0  0
   -2.9470   -5.2270   -2.5500 H   0  0  0  0  0  0  0  0  0  0  0  0
   -4.0970   -0.5530   -1.6180 H   0  0  0  0  0  0  0  0  0  0  0  0
   -4.1980   -5.6850    4.5800 H   0  0  0  0  0  0  0  0  0  0  0  0
   -4.6190   -3.3190    5.0690 H   0  0  0  0  0  0  0  0  0  0  0  0
   -2.8340   -2.9290   -6.8290 H   0  0  0  0  0  0  0  0  0  0  0  0
   -3.6340   -0.6630   -6.2920 H   0  0  0  0  0  0  0  0  0  0  0  0
   -4.0450   -0.0140   -3.9590 H   0  0  0  0  0  0  0  0  0  0  0  0
   -2.2480   -6.4710   -0.2380 H   0  0  0  0  0  0  0  0  0  0  0  0
   -3.7380   -6.5700   -1.1980 H   0  0  0  0  0  0  0  0  0  0  0  0
   -3.7330   -8.2460    0.5970 H   0  0  0  0  0  0  0  0  0  0  0  0
   -5.0930   -7.1280    0.6900 H   0  0  0  0  0  0  0  0  0  0  0  0
   -4.1580   -7.4450    2.9150 H   0  0  0  0  0  0  0  0  0  0  0  0
   -2.5300   -7.0090    2.3680 H   0  0  0  0  0  0  0  0  0  0  0  0
   -5.1160   -0.2930    0.7970 H   0  0  0  0  0  0  0  0  0  0  0  0
   -3.4140   -0.0160    0.3720 H   0  0  0  0  0  0  0  0  0  0  0  0
   -2.6510   -0.5950    2.5920 H   0  0  0  0  0  0  0  0  0  0  0  0
   -5.6320   -1.0040    3.2280 H   0  0  0  0  0  0  0  0  0  0  0  0
   -4.3290   -1.0580    4.4180 H   0  0  0  0  0  0  0  0  0  0  0  0
   -4.9140    1.4460    2.6730 H   0  0  0  0  0  0  0  0  0  0  0  0
   -3.2960    1.7650    2.0700 H   0  0  0  0  0  0  0  0  0  0  0  0
   -4.2810    2.0270    4.7410 H   0  0  0  0  0  0  0  0  0  0  0  0
   -3.2770    0.6600    4.8640 H   0  0  0  0  0  0  0  0  0  0  0  0
   -1.9670   -5.5380   -4.2530 H   0  0  0  0  0  0  0  0  0  0  0  0
   -2.7770   -5.4990   -5.7920 H   0  0  0  0  0  0  0  0  0  0  0  0
   -1.4480   -0.1900    4.3940 H   0  0  0  0  0  0  0  0  0  0  0  0
    0.7340    4.8510    5.0610 H   0  0  0  0  0  0  0  0  0  0  0  0
    2.0440   -3.0790    5.4970 H   0  0  0  0  0  0  0  0  0  0  0  0
   -0.0710   -2.0990    4.7720 H   0  0  0  0  0  0  0  0  0  0  0  0
   -0.6880    6.7730    4.6530 H   0  0  0  0  0  0  0  0  0  0  0  0
   -4.6320    6.3820    3.6080 H   0  0  0  0  0  0  0  0  0  0  0  0
   -4.5220    3.9320    3.6710 H   0  0  0  0  0  0  0  0  0  0  0  0
    6.1110    1.0770    6.5520 H   0  0  0  0  0  0  0  0  0  0  0  0
    6.2810   -1.3700    6.8340 H   0  0  0  0  0  0  0  0  0  0  0  0
    4.3610   -2.8160    6.2970 H   0  0  0  0  0  0  0  0  0  0  0  0
    2.6100    4.0480    5.1940 H   0  0  0  0  0  0  0  0  0  0  0  0
    2.3690    3.3200    6.7900 H   0  0  0  0  0  0  0  0  0  0  0  0
    4.3490    2.6400    4.5900 H   0  0  0  0  0  0  0  0  0  0  0  0
    4.6590    3.0560    6.2760 H   0  0  0  0  0  0  0  0  0  0  0  0
    0.0820   -2.3820   -6.9540 H   0  0  0  0  0  0  0  0  0  0  0  0
    0.8530    0.2280   -6.4470 H   0  0  0  0  0  0  0  0  0  0  0  0
    3.0290    2.7800    2.3850 H   0  0  0  0  0  0  0  0  0  0  0  0
    3.3450    5.2110    2.2130 H   0  0  0  0  0  0  0  0  0  0  0  0
    3.1470    6.3310    0.0760 H   0  0  0  0  0  0  0  0  0  0  0  0
    2.5740    0.7010    1.3860 H   0  0  0  0  0  0  0  0  0  0  0  0
    3.1040    7.1940   -1.7880 H   0  0  0  0  0  0  0  0  0  0  0  0
    2.9750    8.1800   -3.9930 H   0  0  0  0  0  0  0  0  0  0  0  0
    2.4090    6.7860   -5.9500 H   0  0  0  0  0  0  0  0  0  0  0  0
   -0.0430    3.5590   -5.1310 H   0  0  0  0  0  0  0  0  0  0  0  0
    1.4240    4.7810   -6.7780 H   0  0  0  0  0  0  0  0  0  0  0  0
    2.7660    3.6960   -6.3710 H   0  0  0  0  0  0  0  0  0  0  0  0
    2.5240   -3.8040   -1.7150 H   0  0  0  0  0  0  0  0  0  0  0  0
    1.1380   -3.7150   -0.6200 H   0  0  0  0  0  0  0  0  0  0  0  0
   -0.4470   -4.0540   -2.2660 H   0  0  0  0  0  0  0  0  0  0  0  0
   -0.1850   -5.6780   -5.7500 H   0  0  0  0  0  0  0  0  0  0  0  0
   -0.8990   -4.5500   -6.8780 H   0  0  0  0  0  0  0  0  0  0  0  0
   -0.2270    3.2790   -7.4920 H   0  0  0  0  0  0  0  0  0  0  0  0
    0.9950    2.0110   -7.5220 H   0  0  0  0  0  0  0  0  0  0  0  0
   -0.5760    1.7720   -6.6780 H   0  0  0  0  0  0  0  0  0  0  0  0
    0.9300   -6.0710   -1.7970 H   0  0  0  0  0  0  0  0  0  0  0  0
    1.9530   -5.7110   -3.1980 H   0  0  0  0  0  0  0  0  0  0  0  0
    0.2490   -6.1300   -3.4210 H   0  0  0  0  0  0  0  0  0  0  0  0
    1.4620   -1.8730    1.3500 H   0  0  0  0  0  0  0  0  0  0  0  0
    3.1470   -1.2880    1.3030 H   0  0  0  0  0  0  0  0  0  0  0  0
    2.7680   -2.8080    0.5790 H   0  0  0  0  0  0  0  0  0  0  0  0
  1  2  2  0
  1  5  1  0
  1 11  1  0
  2  6  1  0
  2 14  1  0
  3  4  1  0
  3  7  2  0
  3 15  1  0
  4  8  2  0
  4 18  1  0
  5  9  2  0
  5 19  1  0
  6 10  2  0
  6 22  1  0
  7  9  1  0
  7 89  1  0
  8 10  1  0
  8 90  1  0
  9 10  1  0
 11 12  2  0
 11 21  1  0
 12 13  1  0
 12 91  1  0
 13 14  2  0
 13 92  1  0
 14 24  1  0
 15 16  2  0
 15 27  1  0
 16 17  1  0
 16 93  1  0
 17 18  2  0
 17 94  1  0
 18 95  1  0
 19 20  1  0
 19 96  1  0
 19 97  1  0
 20 21  1  0
 20 98  1  0
 20 99  1  0
 21100  1  0
 21101  1  0
 22 23  1  0
 22102  1  0
 22103  1  0
 23 24  1  0
 23 25  1  0
 23104  1  6
 24105  1  0
 24106  1  0
 25 26  1  0
 25107  1  0
 25108  1  0
 26 35  1  0
 26109  1  0
 26110  1  0
 27 85  1  0
 27111  1  0
 27112  1  0
 28 29  1  0
 28 32  2  0
 28 38  1  0
 29 33  2  0
 29 41  1  0
 30 31  2  0
 30 34  1  0
 30 42  1  0
 31 35  1  0
 31 45  1  0
 32 36  1  0
 32 50  1  0
 33 37  1  0
 33113  1  0
 34 36  2  0
 34114  1  0
 35 37  2  0
 36 37  1  0
 38 39  2  0
 38 46  1  0
 39 40  1  0
 39 49  1  0
 40 41  2  0
 40115  1  0
 41116  1  0
 42 43  2  0
 42117  1  0
 43 44  1  0
 44 45  2  0
 44118  1  0
 45119  1  0
 46 47  2  0
 46 51  1  0
 47 48  1  0
 47120  1  0
 48 49  2  0
 48121  1  0
 49122  1  0
 50 51  1  0
 50123  1  0
 50124  1  0
 51125  1  0
 51126  1  0
 52 53  2  0
 52 55  1  0
 52 65  1  0
 53 56  1  0
 53 68  1  0
 54 57  2  0
 54 58  1  0
 54 85  1  0
 55 61  2  0
 55 74  1  0
 56 62  2  0
 56 81  1  0
 57 63  1  0
 57 84  1  0
 58 64  1  0
 58127  1  0
 59 61  1  0
 59 63  2  0
 59 76  1  0
 60 62  1  0
 60 64  2  0
 60128  1  0
 61 62  1  0
 63 64  1  0
 65 66  2  0
 65 69  1  0
 66 67  1  0
 66 72  1  0
 67 68  2  0
 67 77  1  0
 68 80  1  0
 69 70  2  0
 69 73  1  0
 70 71  1  0
 70129  1  0
 71 72  2  0
 71130  1  0
 72131  1  0
 73 74  2  0
 73132  1  0
 74 75  1  0
 75 76  2  0
 75 88  1  0
 76 83  1  0
 77 78  2  0
 77133  1  0
 78 79  1  0
 78134  1  0
 79 80  2  0
 79135  1  0
 80 82  1  0
 81 82  1  0
 81 86  1  0
 81136  1  1
 82137  1  0
 82138  1  0
 83 84  1  0
 83139  1  0
 83140  1  0
 84 87  1  0
 84141  1  1
 85142  1  0
 85143  1  0
 86144  1  0
 86145  1  0
 86146  1  0
 87147  1  0
 87148  1  0
 87149  1  0
 88150  1  0
 88151  1  0
 88152  1  0
M  END
