
     RDKit          3D

149165  0  0  0  0  0  0  0  0999 V2000
    0.5300   -2.5710   -1.5950 C   0  0  0  0  0  0  0  0  0  0  0  0
    0.0340   -1.4730   -2.3590 C   0  0  0  0  0  0  0  0  0  0  0  0
   -2.7680   -4.9080   -3.9040 C   0  0  0  0  0  0  0  0  0  0  0  0
   -0.0450   -3.8710   -1.7190 C   0  0  0  0  0  0  0  0  0  0  0  0
   -1.0300   -1.7290   -3.2580 C   0  0  0  0  0  0  0  0  0  0  0  0
   -1.8760   -5.2470   -2.9590 C   0  0  0  0  0  0  0  0  0  0  0  0
   -2.6900   -3.4440   -4.2820 C   0  0  2  0  0  0  0  0  0  0  0  0
   -1.1050   -4.0580   -2.6060 C   0  0  0  0  0  0  0  0  0  0  0  0
   -1.5830   -2.9940   -3.3640 C   0  0  0  0  0  0  0  0  0  0  0  0
    1.6270   -2.3810   -0.7190 C   0  0  0  0  0  0  0  0  0  0  0  0
    2.1970   -1.0940   -0.5620 C   0  0  0  0  0  0  0  0  0  0  0  0
    1.6600    0.0210   -1.2470 C   0  0  0  0  0  0  0  0  0  0  0  0
    0.6160   -0.1750   -2.1950 C   0  0  0  0  0  0  0  0  0  0  0  0
    2.1750   -3.4820    0.0060 C   0  0  0  0  0  0  0  0  0  0  0  0
    3.3150   -3.2420    0.7870 C   0  0  0  0  0  0  0  0  0  0  0  0
    3.8230   -1.9700    0.8410 C   0  0  0  0  0  0  0  0  0  0  0  0
    3.2780   -0.9280    0.2150 N   0  0  0  0  0  0  0  0  0  0  0  0
    1.5580   -4.7510   -0.1100 C   0  0  0  0  0  0  0  0  0  0  0  0
    0.4650   -4.9320   -0.9620 C   0  0  0  0  0  0  0  0  0  0  0  0
    2.1380    1.3560   -1.0620 C   0  0  0  0  0  0  0  0  0  0  0  0
    1.6990    2.4300   -1.8500 C   0  0  0  0  0  0  0  0  0  0  0  0
    0.7270    2.2240   -2.8050 C   0  0  0  0  0  0  0  0  0  0  0  0
    0.1860    0.9510   -2.9560 C   0  0  0  0  0  0  0  0  0  0  0  0
    3.1140    1.7580   -0.0210 C   0  0  0  0  0  0  0  0  0  0  0  0
    4.1870    2.2430   -0.3890 O   0  0  0  0  0  0  0  0  0  0  0  0
    2.7100    1.7060    1.4580 C   0  0  0  0  0  0  0  0  0  0  0  0
    1.9800   -5.9750    0.6320 C   0  0  0  0  0  0  0  0  0  0  0  0
    2.8680   -6.0130    1.4720 O   0  0  0  0  0  0  0  0  0  0  0  0
    4.9460   -1.6790    1.5530 O   0  0  0  0  0  0  0  0  0  0  0  0
   -4.0150   -2.7000   -4.0470 C   0  0  0  0  0  0  0  0  0  0  0  0
   -3.5720    1.0440   -6.7040 C   0  0  0  0  0  0  0  0  0  0  0  0
   -4.2790    0.1000   -5.8800 C   0  0  0  0  0  0  0  0  0  0  0  0
   -5.4460    4.1260   -3.7200 C   0  0  0  0  0  0  0  0  0  0  0  0
   -3.5630    2.4560   -6.3810 C   0  0  0  0  0  0  0  0  0  0  0  0
   -5.0510    0.6250   -4.8090 C   0  0  0  0  0  0  0  0  0  0  0  0
   -4.5800    4.2260   -4.7360 C   0  0  0  0  0  0  0  0  0  0  0  0
   -5.9070    2.7150   -3.5040 C   0  0  2  0  0  0  0  0  0  0  0  0
   -4.3500    2.9020   -5.3130 C   0  0  0  0  0  0  0  0  0  0  0  0
   -5.1090    1.9900   -4.5620 C   0  0  0  0  0  0  0  0  0  0  0  0
   -2.8560    0.5650   -7.8450 C   0  0  0  0  0  0  0  0  0  0  0  0
   -2.7440   -0.8160   -8.1110 C   0  0  0  0  0  0  0  0  0  0  0  0
   -3.3860   -1.7220   -7.2790 C   0  0  0  0  0  0  0  0  0  0  0  0
   -4.1540   -1.3000   -6.1810 C   0  0  0  0  0  0  0  0  0  0  0  0
   -2.2640    1.4430   -8.7770 C   0  0  0  0  0  0  0  0  0  0  0  0
   -1.5450    0.9700   -9.8870 C   0  0  0  0  0  0  0  0  0  0  0  0
   -1.4020   -0.3930  -10.0940 C   0  0  0  0  0  0  0  0  0  0  0  0
   -2.0090   -1.2830   -9.2150 C   0  0  0  0  0  0  0  0  0  0  0  0
   -2.5750    3.3370   -7.1620 C   0  0  1  0  0  0  0  0  0  0  0  0
   -2.5120    2.9170   -8.6370 C   0  0  0  0  0  0  0  0  0  0  0  0
   -5.7600   -0.2160   -3.9920 O   0  0  0  0  0  0  0  0  0  0  0  0
   -2.7440    4.8590   -7.1390 C   0  0  0  0  0  0  0  0  0  0  0  0
   -7.4160    2.5970   -3.6920 C   0  0  0  0  0  0  0  0  0  0  0  0
   -4.7760   -2.4190   -5.3540 C   0  0  0  0  0  0  0  0  0  0  0  0
    2.5400    1.8720    5.9560 C   0  0  0  0  0  0  0  0  0  0  0  0
    2.2210    3.1670    6.4090 C   0  0  0  0  0  0  0  0  0  0  0  0
   -0.2630    2.9500    1.9540 C   0  0  0  0  0  0  0  0  0  0  0  0
   -0.7330    4.0820    2.6360 C   0  0  0  0  0  0  0  0  0  0  0  0
    1.8830    1.3970    4.7880 C   0  0  0  0  0  0  0  0  0  0  0  0
    1.2500    3.9290    5.7600 C   0  0  0  0  0  0  0  0  0  0  0  0
    0.7320    2.1540    2.5810 C   0  0  0  0  0  0  0  0  0  0  0  0
   -0.2030    4.3810    3.8950 C   0  0  0  0  0  0  0  0  0  0  0  0
    1.1240    2.3170    3.9550 C   0  0  0  0  0  0  0  0  0  0  0  0
    0.7150    3.5320    4.5380 C   0  0  0  0  0  0  0  0  0  0  0  0
    3.5630    1.1490    6.6260 C   0  0  0  0  0  0  0  0  0  0  0  0
    4.3550    1.7820    7.6420 C   0  0  0  0  0  0  0  0  0  0  0  0
    3.9600    3.0680    8.1050 C   0  0  0  0  0  0  0  0  0  0  0  0
    2.8860    3.7230    7.4980 C   0  0  0  0  0  0  0  0  0  0  0  0
   -0.8100    2.6660    0.6840 C   0  0  0  0  0  0  0  0  0  0  0  0
   -1.7740    3.4900    0.1000 C   0  0  0  0  0  0  0  0  0  0  0  0
   -2.2160    4.6180    0.7770 C   0  0  0  0  0  0  0  0  0  0  0  0
   -1.7000    4.9120    2.0390 C   0  0  0  0  0  0  0  0  0  0  0  0
    3.8400   -0.1890    6.2590 C   0  0  0  0  0  0  0  0  0  0  0  0
    5.0120   -0.8070    6.7380 C   0  0  0  0  0  0  0  0  0  0  0  0
    5.8420   -0.1730    7.6450 C   0  0  0  0  0  0  0  0  0  0  0  0
    5.4960    1.0850    8.1190 C   0  0  0  0  0  0  0  0  0  0  0  0
    1.9620   -0.1100    4.4420 C   0  0  1  0  0  0  0  0  0  0  0  0
    2.7710   -1.0100    5.5050 C   0  0  2  0  0  0  0  0  0  0  0  0
    1.3880    1.2380    1.7670 O   0  0  0  0  0  0  0  0  0  0  0  0
    6.3230    1.6490    9.0580 O   0  0  0  0  0  0  0  0  0  0  0  0
    1.7830   -1.5930    6.5880 C   0  0  0  0  0  0  0  0  0  0  0  0
    2.2950   -2.2730    7.8720 C   0  0  0  0  0  0  0  0  0  0  0  0
    0.5060   -0.6460    4.1550 C   0  0  0  0  0  0  0  0  0  0  0  0
    0.4060   -1.9360    3.3550 C   0  0  0  0  0  0  0  0  0  0  0  0
    2.8930   -3.6580    7.6940 C   0  0  0  0  0  0  0  0  0  0  0  0
    3.4410   -2.1520    4.6970 C   0  0  0  0  0  0  0  0  0  0  0  0
    4.6620    3.8000    9.2210 C   0  0  0  0  0  0  0  0  0  0  0  0
   -3.4650   -5.5980   -4.3600 H   0  0  0  0  0  0  0  0  0  0  0  0
   -1.4530   -0.9540   -3.8900 H   0  0  0  0  0  0  0  0  0  0  0  0
   -1.7440   -6.2280   -2.5340 H   0  0  0  0  0  0  0  0  0  0  0  0
   -2.3340   -3.3680   -5.3140 H   0  0  0  0  0  0  0  0  0  0  0  0
    3.8100   -4.0250    1.3450 H   0  0  0  0  0  0  0  0  0  0  0  0
    0.0100   -5.9160   -1.0460 H   0  0  0  0  0  0  0  0  0  0  0  0
    2.1120    3.4270   -1.7030 H   0  0  0  0  0  0  0  0  0  0  0  0
    0.3760    3.0480   -3.4210 H   0  0  0  0  0  0  0  0  0  0  0  0
   -0.5880    0.8590   -3.7140 H   0  0  0  0  0  0  0  0  0  0  0  0
    2.8730    2.7290    1.8280 H   0  0  0  0  0  0  0  0  0  0  0  0
    3.4320    1.0580    1.9640 H   0  0  0  0  0  0  0  0  0  0  0  0
    1.4200   -6.8940    0.3920 H   0  0  0  0  0  0  0  0  0  0  0  0
    5.3220   -2.5090    1.8800 H   0  0  0  0  0  0  0  0  0  0  0  0
   -3.8370   -1.7600   -3.5130 H   0  0  0  0  0  0  0  0  0  0  0  0
   -4.6700   -3.2940   -3.3960 H   0  0  0  0  0  0  0  0  0  0  0  0
   -5.7900    4.9620   -3.1260 H   0  0  0  0  0  0  0  0  0  0  0  0
   -4.1580    5.1580   -5.0560 H   0  0  0  0  0  0  0  0  0  0  0  0
   -5.6060    2.3820   -2.5040 H   0  0  0  0  0  0  0  0  0  0  0  0
   -3.3040   -2.7860   -7.4950 H   0  0  0  0  0  0  0  0  0  0  0  0
   -1.1070    1.6660  -10.5990 H   0  0  0  0  0  0  0  0  0  0  0  0
   -0.8410   -0.7640  -10.9480 H   0  0  0  0  0  0  0  0  0  0  0  0
   -1.9140   -2.3500   -9.4050 H   0  0  0  0  0  0  0  0  0  0  0  0
   -1.5910    3.1310   -6.7110 H   0  0  0  0  0  0  0  0  0  0  0  0
   -1.7120    3.4710   -9.1430 H   0  0  0  0  0  0  0  0  0  0  0  0
   -3.4540    3.1580   -9.1480 H   0  0  0  0  0  0  0  0  0  0  0  0
   -6.0010    0.2440   -3.1740 H   0  0  0  0  0  0  0  0  0  0  0  0
   -2.0860    5.3410   -7.8720 H   0  0  0  0  0  0  0  0  0  0  0  0
   -2.4470    5.2700   -6.1710 H   0  0  0  0  0  0  0  0  0  0  0  0
   -3.7710    5.1590   -7.3720 H   0  0  0  0  0  0  0  0  0  0  0  0
   -7.7590    1.5700   -3.5390 H   0  0  0  0  0  0  0  0  0  0  0  0
   -7.7270    2.8960   -4.7010 H   0  0  0  0  0  0  0  0  0  0  0  0
   -7.9480    3.2320   -2.9750 H   0  0  0  0  0  0  0  0  0  0  0  0
   -5.8280   -2.1910   -5.1560 H   0  0  0  0  0  0  0  0  0  0  0  0
   -4.8240   -3.3440   -5.9450 H   0  0  0  0  0  0  0  0  0  0  0  0
    0.9700    4.8980    6.1740 H   0  0  0  0  0  0  0  0  0  0  0  0
   -0.5240    5.2940    4.3960 H   0  0  0  0  0  0  0  0  0  0  0  0
    2.6090    4.7180    7.8460 H   0  0  0  0  0  0  0  0  0  0  0  0
   -0.5040    1.7690    0.1540 H   0  0  0  0  0  0  0  0  0  0  0  0
   -2.1780    3.2430   -0.8780 H   0  0  0  0  0  0  0  0  0  0  0  0
   -2.9640    5.2670    0.3300 H   0  0  0  0  0  0  0  0  0  0  0  0
   -2.0580    5.7980    2.5580 H   0  0  0  0  0  0  0  0  0  0  0  0
    5.2790   -1.8200    6.4560 H   0  0  0  0  0  0  0  0  0  0  0  0
    6.7270   -0.6910    8.0010 H   0  0  0  0  0  0  0  0  0  0  0  0
    2.5340   -0.1590    3.5100 H   0  0  0  0  0  0  0  0  0  0  0  0
    7.0430    1.0330    9.2630 H   0  0  0  0  0  0  0  0  0  0  0  0
    1.1040   -2.3080    6.1130 H   0  0  0  0  0  0  0  0  0  0  0  0
    1.1580   -0.7610    6.9420 H   0  0  0  0  0  0  0  0  0  0  0  0
    1.4240   -2.3890    8.5320 H   0  0  0  0  0  0  0  0  0  0  0  0
    2.9850   -1.6290    8.4250 H   0  0  0  0  0  0  0  0  0  0  0  0
   -0.0780    0.0740    3.5820 H   0  0  0  0  0  0  0  0  0  0  0  0
   -0.0720   -0.7370    5.0810 H   0  0  0  0  0  0  0  0  0  0  0  0
    1.0510   -1.8990    2.4740 H   0  0  0  0  0  0  0  0  0  0  0  0
    0.6550   -2.8160    3.9520 H   0  0  0  0  0  0  0  0  0  0  0  0
   -0.6220   -2.0770    3.0050 H   0  0  0  0  0  0  0  0  0  0  0  0
    2.2910   -4.2710    7.0170 H   0  0  0  0  0  0  0  0  0  0  0  0
    2.9350   -4.1700    8.6620 H   0  0  0  0  0  0  0  0  0  0  0  0
    3.9170   -3.6150    7.3200 H   0  0  0  0  0  0  0  0  0  0  0  0
    3.8920   -2.9240    5.3210 H   0  0  0  0  0  0  0  0  0  0  0  0
    4.2390   -1.7520    4.0630 H   0  0  0  0  0  0  0  0  0  0  0  0
    2.7470   -2.6790    4.0450 H   0  0  0  0  0  0  0  0  0  0  0  0
    4.6870    3.1890   10.1290 H   0  0  0  0  0  0  0  0  0  0  0  0
    4.1400    4.7260    9.4890 H   0  0  0  0  0  0  0  0  0  0  0  0
    5.6760    4.0820    8.9180 H   0  0  0  0  0  0  0  0  0  0  0  0
  1  2  2  0
  1  4  1  0
  1 10  1  0
  2  5  1  0
  2 13  1  0
  3  6  2  0
  3  7  1  0
  3 87  1  0
  4  8  2  0
  4 19  1  0
  5  9  2  0
  5 88  1  0
  6  8  1  0
  6 89  1  0
  7  9  1  0
  7 30  1  0
  7 90  1  6
  8  9  1  0
 10 11  2  0
 10 14  1  0
 11 12  1  0
 11 17  1  0
 12 13  2  0
 12 20  1  0
 13 23  1  0
 14 15  2  0
 14 18  1  0
 15 16  1  0
 15 91  1  0
 16 17  2  0
 16 29  1  0
 18 19  2  0
 18 27  1  0
 19 92  1  0
 20 21  2  0
 20 24  1  0
 21 22  1  0
 21 93  1  0
 22 23  2  0
 22 94  1  0
 23 95  1  0
 24 25  2  0
 24 26  1  0
 26 78  1  0
 26 96  1  0
 26 97  1  0
 27 28  2  0
 27 98  1  0
 29 99  1  0
 30 53  1  0
 30100  1  0
 30101  1  0
 31 32  2  0
 31 34  1  0
 31 40  1  0
 32 35  1  0
 32 43  1  0
 33 36  2  0
 33 37  1  0
 33102  1  0
 34 38  2  0
 34 48  1  0
 35 39  2  0
 35 50  1  0
 36 38  1  0
 36103  1  0
 37 39  1  0
 37 52  1  0
 37104  1  1
 38 39  1  0
 40 41  2  0
 40 44  1  0
 41 42  1  0
 41 47  1  0
 42 43  2  0
 42105  1  0
 43 53  1  0
 44 45  2  0
 44 49  1  0
 45 46  1  0
 45106  1  0
 46 47  2  0
 46107  1  0
 47108  1  0
 48 49  1  0
 48 51  1  0
 48109  1  1
 49110  1  0
 49111  1  0
 50112  1  0
 51113  1  0
 51114  1  0
 51115  1  0
 52116  1  0
 52117  1  0
 52118  1  0
 53119  1  0
 53120  1  0
 54 55  1  0
 54 58  2  0
 54 64  1  0
 55 59  2  0
 55 67  1  0
 56 57  2  0
 56 60  1  0
 56 68  1  0
 57 61  1  0
 57 71  1  0
 58 62  1  0
 58 76  1  0
 59 63  1  0
 59121  1  0
 60 62  2  0
 60 78  1  0
 61 63  2  0
 61122  1  0
 62 63  1  0
 64 65  2  0
 64 72  1  0
 65 66  1  0
 65 75  1  0
 66 67  2  0
 66 86  1  0
 67123  1  0
 68 69  2  0
 68124  1  0
 69 70  1  0
 69125  1  0
 70 71  2  0
 70126  1  0
 71127  1  0
 72 73  2  0
 72 77  1  0
 73 74  1  0
 73128  1  0
 74 75  2  0
 74129  1  0
 75 79  1  0
 76 77  1  0
 76 82  1  0
 76130  1  6
 77 80  1  1
 77 85  1  0
 79131  1  0
 80 81  1  0
 80132  1  0
 80133  1  0
 81 84  1  0
 81134  1  0
 81135  1  0
 82 83  1  0
 82136  1  0
 82137  1  0
 83138  1  0
 83139  1  0
 83140  1  0
 84141  1  0
 84142  1  0
 84143  1  0
 85144  1  0
 85145  1  0
 85146  1  0
 86147  1  0
 86148  1  0
 86149  1  0
M  END
