
     RDKit          3D

235261  0  0  0  0  0  0  0  0999 V2000
    6.4230    1.2320    1.8310 C   0  0  0  0  0  0  0  0  0  0  0  0
    3.1580    2.5780   -4.7440 C   0  0  0  0  0  0  0  0  0  0  0  0
    6.2930   -0.1600    1.6140 C   0  0  0  0  0  0  0  0  0  0  0  0
    3.0990    1.1880   -4.9760 C   0  0  0  0  0  0  0  0  0  0  0  0
    6.1030    2.1590    0.8200 C   0  0  0  0  0  0  0  0  0  0  0  0
    3.8110    3.0250   -3.5640 C   0  0  0  0  0  0  0  0  0  0  0  0
    5.3480   -2.0620    0.3060 C   0  0  0  0  0  0  0  0  0  0  0  0
    3.5850   -1.2020   -4.2500 C   0  0  0  0  0  0  0  0  0  0  0  0
    4.5660   -2.4730   -0.7230 C   0  0  0  0  0  0  0  0  0  0  0  0
    3.9510   -2.0540   -3.0800 C   0  0  0  0  0  0  0  0  0  0  0  0
    5.0000    2.5600   -1.4030 C   0  0  0  0  0  0  0  0  0  0  0  0
    5.7180   -0.6060    0.3960 C   0  0  0  0  0  0  0  0  0  0  0  0
    3.6300    0.2930   -4.0010 C   0  0  0  0  0  0  0  0  0  0  0  0
    4.4080   -1.5990   -1.9000 C   0  0  0  0  0  0  0  0  0  0  0  0
    5.4980    1.6950   -0.3970 C   0  0  0  0  0  0  0  0  0  0  0  0
    4.3600    2.1360   -2.5960 C   0  0  0  0  0  0  0  0  0  0  0  0
    5.3140    0.3090   -0.6050 C   0  0  0  0  0  0  0  0  0  0  0  0
    4.2330    0.7550   -2.8040 C   0  0  0  0  0  0  0  0  0  0  0  0
    4.6810   -0.1380   -1.7930 C   0  0  0  0  0  0  0  0  0  0  0  0
    6.7660    1.6780    3.1150 C   0  0  0  0  0  0  0  0  0  0  0  0
    7.1900    0.7880    4.1060 C   0  0  0  0  0  0  0  0  0  0  0  0
    7.1680   -0.5740    3.8630 C   0  0  0  0  0  0  0  0  0  0  0  0
    6.6470   -1.0660    2.6590 C   0  0  0  0  0  0  0  0  0  0  0  0
    6.3570   -2.4990    2.4910 C   0  0  0  0  0  0  0  0  0  0  0  0
    5.7220   -2.9480    1.4030 C   0  0  0  0  0  0  0  0  0  0  0  0
    2.5810    3.4440   -5.7150 C   0  0  0  0  0  0  0  0  0  0  0  0
    1.9810    2.9860   -6.9000 C   0  0  0  0  0  0  0  0  0  0  0  0
    1.9590    1.6170   -7.1180 C   0  0  0  0  0  0  0  0  0  0  0  0
    2.5060    0.7410   -6.1830 C   0  0  0  0  0  0  0  0  0  0  0  0
    6.4880    3.6500    1.0150 C   0  0  1  0  0  0  0  0  0  0  0  0
    6.6190    4.1820    2.5210 C   0  0  1  0  0  0  0  0  0  0  0  0
    6.3310    3.0560    3.5180 C   0  0  0  0  0  0  0  0  0  0  0  0
    3.9720    4.4820   -3.3300 C   0  0  0  0  0  0  0  0  0  0  0  0
    3.0440    5.2770   -3.3780 O   0  0  0  0  0  0  0  0  0  0  0  0
    1.4160    1.0450   -8.2300 O   0  0  0  0  0  0  0  0  0  0  0  0
    7.5890   -1.3700    4.8900 O   0  0  0  0  0  0  0  0  0  0  0  0
    7.9920    4.8500    2.8800 C   0  0  0  0  0  0  0  0  0  0  0  0
    5.5120    5.3200    2.6970 C   0  0  0  0  0  0  0  0  0  0  0  0
    9.1800    3.9270    3.1400 C   0  0  0  0  0  0  0  0  0  0  0  0
    7.6910    3.9680    0.1050 C   0  0  0  0  0  0  0  0  0  0  0  0
    3.6190   -3.6810   -0.5820 C   0  0  0  0  0  0  0  0  0  0  0  0
    1.3320    3.9770   -7.8230 C   0  0  0  0  0  0  0  0  0  0  0  0
   -0.6060   -1.6690   -3.4150 C   0  0  0  0  0  0  0  0  0  0  0  0
   -0.0240   -1.4350   -2.1360 C   0  0  0  0  0  0  0  0  0  0  0  0
   -1.0710    2.9030   -3.4910 C   0  0  0  0  0  0  0  0  0  0  0  0
   -1.0430   -0.5900   -4.1930 C   0  0  0  0  0  0  0  0  0  0  0  0
   -0.0350   -0.1300   -1.5420 C   0  0  0  0  0  0  0  0  0  0  0  0
   -1.3880    1.8830   -4.2960 C   0  0  0  0  0  0  0  0  0  0  0  0
   -0.4380    2.4260   -2.1950 C   0  0  0  0  0  0  0  0  0  0  0  0
   -0.9310    0.6690   -3.6470 C   0  0  0  0  0  0  0  0  0  0  0  0
   -0.4320    0.9290   -2.3660 C   0  0  0  0  0  0  0  0  0  0  0  0
   -0.7770   -2.9720   -3.9260 C   0  0  0  0  0  0  0  0  0  0  0  0
   -0.3920   -4.0740   -3.1400 C   0  0  0  0  0  0  0  0  0  0  0  0
    0.3550   -3.8300   -1.9690 C   0  0  0  0  0  0  0  0  0  0  0  0
    0.5840   -2.5310   -1.4980 C   0  0  0  0  0  0  0  0  0  0  0  0
   -1.3730   -3.1680   -5.1970 C   0  0  0  0  0  0  0  0  0  0  0  0
   -1.6050   -4.4770   -5.6460 C   0  0  0  0  0  0  0  0  0  0  0  0
   -1.3460   -5.5680   -4.8150 C   0  0  0  0  0  0  0  0  0  0  0  0
   -0.8040   -5.3630   -3.5440 C   0  0  0  0  0  0  0  0  0  0  0  0
   -1.7190   -2.0540   -5.9830 C   0  0  0  0  0  0  0  0  0  0  0  0
   -1.5570   -0.7560   -5.4890 C   0  0  0  0  0  0  0  0  0  0  0  0
   -1.8110    0.4620   -6.3580 C   0  0  0  0  0  0  0  0  0  0  0  0
   -2.1220    1.7650   -5.5870 C   0  0  0  0  0  0  0  0  0  0  0  0
    0.2930    0.0200   -0.0300 C   0  0  1  0  0  0  0  0  0  0  0  0
    0.6880   -1.3600    0.6670 C   0  0  2  0  0  0  0  0  0  0  0  0
    1.4980   -2.2000   -0.3340 C   0  0  1  0  0  0  0  0  0  0  0  0
   -0.7140   -6.3660   -2.6070 O   0  0  0  0  0  0  0  0  0  0  0  0
   -0.4830   -2.1630    1.2650 C   0  0  0  0  0  0  0  0  0  0  0  0
    1.4720    1.0010    0.1650 C   0  0  0  0  0  0  0  0  0  0  0  0
   -0.9210    0.6160    0.7050 C   0  0  0  0  0  0  0  0  0  0  0  0
    2.3600   -3.3290    0.2790 C   0  0  0  0  0  0  0  0  0  0  0  0
   -3.9990   -8.6790    1.5090 C   0  0  0  0  0  0  0  0  0  0  0  0
   -5.1360   -8.2330    2.1940 C   0  0  0  0  0  0  0  0  0  0  0  0
   -8.4540   -2.7780    1.3510 C   0  0  0  0  0  0  0  0  0  0  0  0
   -3.4060   -8.0200    0.4880 N   0  0  0  0  0  0  0  0  0  0  0  0
   -8.3210   -1.8240    0.3950 C   0  0  0  0  0  0  0  0  0  0  0  0
   -5.7240   -7.0230    1.8000 C   0  0  0  0  0  0  0  0  0  0  0  0
   -7.5780   -4.0780    1.4160 C   0  0  0  0  0  0  0  0  0  0  0  0
   -7.0850   -1.2610   -1.6990 C   0  0  0  0  0  0  0  0  0  0  0  0
   -6.0030   -1.8550   -2.3360 N   0  0  0  0  0  0  0  0  0  0  0  0
   -3.4400   -5.8800   -0.9000 C   0  0  1  0  0  0  0  0  0  0  0  0
   -4.6160   -3.8440   -1.8920 N   0  0  0  0  0  0  0  0  0  0  0  0
   -7.3520   -2.0300   -0.6070 C   0  0  0  0  0  0  0  0  0  0  0  0
   -3.9750   -6.8400    0.1670 C   0  0  0  0  0  0  0  0  0  0  0  0
   -5.6330   -3.0010   -1.6400 C   0  0  0  0  0  0  0  0  0  0  0  0
   -4.6030   -4.8590   -0.9710 C   0  0  0  0  0  0  0  0  0  0  0  0
   -5.1310   -6.3130    0.7700 C   0  0  0  0  0  0  0  0  0  0  0  0
   -6.5150   -4.1620    0.3410 C   0  0  0  0  0  0  0  0  0  0  0  0
   -6.5170   -3.1230   -0.5890 C   0  0  0  0  0  0  0  0  0  0  0  0
   -5.5090   -5.0830    0.1100 C   0  0  0  0  0  0  0  0  0  0  0  0
   -9.0430   -0.4990    0.2290 C   0  0  0  0  0  0  0  0  0  0  0  0
   -9.2030   -0.0450   -1.2690 C   0  0  2  0  0  0  0  0  0  0  0  0
   -7.8400   -0.0410   -2.0520 C   0  0  0  0  0  0  0  0  0  0  0  0
   -2.2440   -5.0960   -0.3830 C   0  0  0  0  0  0  0  0  0  0  0  0
   -1.4900   -5.4320    0.5290 O   0  0  0  0  0  0  0  0  0  0  0  0
   -3.2160   -6.5460   -2.2680 C   0  0  0  0  0  0  0  0  0  0  0  0
   -1.8550   -7.2360   -2.4830 C   0  0  0  0  0  0  0  0  0  0  0  0
   -9.8620    1.3410   -1.4000 C   0  0  0  0  0  0  0  0  0  0  0  0
  -11.2320    1.4460   -0.7450 C   0  0  0  0  0  0  0  0  0  0  0  0
   -5.7130   -9.0590    3.3010 C   0  0  0  0  0  0  0  0  0  0  0  0
   -0.6660   -0.8710    6.0040 C   0  0  0  0  0  0  0  0  0  0  0  0
    0.6260   -1.1410    6.5010 C   0  0  0  0  0  0  0  0  0  0  0  0
    1.2460    3.7620    4.8620 C   0  0  0  0  0  0  0  0  0  0  0  0
    2.4560    3.2470    5.3530 C   0  0  0  0  0  0  0  0  0  0  0  0
   -0.8810    0.4700    5.4970 C   0  0  0  0  0  0  0  0  0  0  0  0
    1.6160   -0.1650    6.4490 C   0  0  0  0  0  0  0  0  0  0  0  0
    0.0990    2.8800    4.9220 C   0  0  0  0  0  0  0  0  0  0  0  0
    2.5020    1.9690    5.9010 C   0  0  0  0  0  0  0  0  0  0  0  0
    0.1360    1.5130    5.4310 C   0  0  0  0  0  0  0  0  0  0  0  0
    1.3940    1.1150    5.9280 C   0  0  0  0  0  0  0  0  0  0  0  0
   -1.6300   -1.9330    6.0590 C   0  0  0  0  0  0  0  0  0  0  0  0
   -1.2650   -3.1860    6.6190 C   0  0  0  0  0  0  0  0  0  0  0  0
    0.0210   -3.4010    7.1100 C   0  0  0  0  0  0  0  0  0  0  0  0
    0.9590   -2.3870    7.0390 C   0  0  0  0  0  0  0  0  0  0  0  0
    1.3300    5.0840    4.3200 C   0  0  0  0  0  0  0  0  0  0  0  0
    2.5490    5.7360    4.1030 C   0  0  0  0  0  0  0  0  0  0  0  0
    3.7410    5.1560    4.5240 C   0  0  0  0  0  0  0  0  0  0  0  0
    3.6590    3.9660    5.2500 C   0  0  0  0  0  0  0  0  0  0  0  0
   -2.8860   -1.7770    5.5860 N   0  0  0  0  0  0  0  0  0  0  0  0
   -3.7760   -2.7930    5.6520 C   0  0  0  0  0  0  0  0  0  0  0  0
   -3.4880   -4.0250    6.1900 C   0  0  0  0  0  0  0  0  0  0  0  0
   -2.2080   -4.2210    6.6810 C   0  0  0  0  0  0  0  0  0  0  0  0
   -2.2270    0.7390    4.9580 C   0  0  0  0  0  0  0  0  0  0  0  0
   -2.9710    1.6000    5.4100 O   0  0  0  0  0  0  0  0  0  0  0  0
   -1.1450    3.4790    4.3890 C   0  0  0  0  0  0  0  0  0  0  0  0
   -1.7310    4.3020    5.1000 O   0  0  0  0  0  0  0  0  0  0  0  0
   -1.5010    3.2130    2.9380 C   0  0  0  0  0  0  0  0  0  0  0  0
    0.2300    5.8080    3.9390 O   0  0  0  0  0  0  0  0  0  0  0  0
   -2.4740    4.2600    2.3840 C   0  0  0  0  0  0  0  0  0  0  0  0
   -2.5650    4.1880    0.8600 C   0  0  0  0  0  0  0  0  0  0  0  0
   -3.5280    5.2350    0.3010 C   0  0  0  0  0  0  0  0  0  0  0  0
   -3.5450    5.2120   -1.2190 C   0  0  0  0  0  0  0  0  0  0  0  0
    5.0840    5.7370    4.1320 C   0  0  0  0  0  0  0  0  0  0  0  0
    4.2570   -1.4460   -5.0800 H   0  0  0  0  0  0  0  0  0  0  0  0
    2.5630   -1.4870   -4.5290 H   0  0  0  0  0  0  0  0  0  0  0  0
    3.7630   -3.1090   -3.2450 H   0  0  0  0  0  0  0  0  0  0  0  0
    5.0650    3.6290   -1.2260 H   0  0  0  0  0  0  0  0  0  0  0  0
    7.4710    1.1470    5.0950 H   0  0  0  0  0  0  0  0  0  0  0  0
    6.5980   -3.1950    3.2850 H   0  0  0  0  0  0  0  0  0  0  0  0
    5.5020   -4.0070    1.3380 H   0  0  0  0  0  0  0  0  0  0  0  0
    2.5840    4.5190   -5.5470 H   0  0  0  0  0  0  0  0  0  0  0  0
    2.4430   -0.3190   -6.4150 H   0  0  0  0  0  0  0  0  0  0  0  0
    5.6580    4.2220    0.5910 H   0  0  0  0  0  0  0  0  0  0  0  0
    5.2470    2.9530    3.6030 H   0  0  0  0  0  0  0  0  0  0  0  0
    6.7110    3.3070    4.5150 H   0  0  0  0  0  0  0  0  0  0  0  0
    4.9980    4.8160   -3.0840 H   0  0  0  0  0  0  0  0  0  0  0  0
    1.0260    1.7320   -8.7910 H   0  0  0  0  0  0  0  0  0  0  0  0
    7.9240   -2.1990    4.5080 H   0  0  0  0  0  0  0  0  0  0  0  0
    8.2740    5.5760    2.1130 H   0  0  0  0  0  0  0  0  0  0  0  0
    7.8660    5.4500    3.7880 H   0  0  0  0  0  0  0  0  0  0  0  0
    4.6090    5.0400    2.1400 H   0  0  0  0  0  0  0  0  0  0  0  0
    5.8910    6.2180    2.1910 H   0  0  0  0  0  0  0  0  0  0  0  0
    9.0630    3.3900    4.0870 H   0  0  0  0  0  0  0  0  0  0  0  0
   10.0940    4.5270    3.2210 H   0  0  0  0  0  0  0  0  0  0  0  0
    9.3310    3.1940    2.3450 H   0  0  0  0  0  0  0  0  0  0  0  0
    7.9390    5.0340    0.1160 H   0  0  0  0  0  0  0  0  0  0  0  0
    7.4810    3.7260   -0.9420 H   0  0  0  0  0  0  0  0  0  0  0  0
    8.5800    3.3890    0.3710 H   0  0  0  0  0  0  0  0  0  0  0  0
    4.1370   -4.5260   -0.1200 H   0  0  0  0  0  0  0  0  0  0  0  0
    3.2880   -4.0750   -1.5440 H   0  0  0  0  0  0  0  0  0  0  0  0
    1.6970    4.9960   -7.6430 H   0  0  0  0  0  0  0  0  0  0  0  0
    0.2490    3.9760   -7.6610 H   0  0  0  0  0  0  0  0  0  0  0  0
    1.5390    3.7450   -8.8710 H   0  0  0  0  0  0  0  0  0  0  0  0
   -1.2910    3.9430   -3.6880 H   0  0  0  0  0  0  0  0  0  0  0  0
    0.5770    2.8250   -2.1150 H   0  0  0  0  0  0  0  0  0  0  0  0
   -1.0570    2.7470   -1.3590 H   0  0  0  0  0  0  0  0  0  0  0  0
    0.7390   -4.6850   -1.4150 H   0  0  0  0  0  0  0  0  0  0  0  0
   -2.0420   -4.6520   -6.6260 H   0  0  0  0  0  0  0  0  0  0  0  0
   -1.5940   -6.5640   -5.1640 H   0  0  0  0  0  0  0  0  0  0  0  0
   -2.1220   -2.1960   -6.9820 H   0  0  0  0  0  0  0  0  0  0  0  0
   -2.6410    0.2610   -7.0480 H   0  0  0  0  0  0  0  0  0  0  0  0
   -0.9160    0.6160   -6.9700 H   0  0  0  0  0  0  0  0  0  0  0  0
   -1.9270    2.6320   -6.2300 H   0  0  0  0  0  0  0  0  0  0  0  0
   -3.1960    1.7710   -5.3570 H   0  0  0  0  0  0  0  0  0  0  0  0
    1.3400   -1.1260    1.5200 H   0  0  0  0  0  0  0  0  0  0  0  0
    2.2210   -1.4950   -0.7450 H   0  0  0  0  0  0  0  0  0  0  0  0
   -0.1520   -3.1530    1.5950 H   0  0  0  0  0  0  0  0  0  0  0  0
   -0.8870   -1.6610    2.1520 H   0  0  0  0  0  0  0  0  0  0  0  0
   -1.3020   -2.2920    0.5520 H   0  0  0  0  0  0  0  0  0  0  0  0
    2.3470    0.7000   -0.4140 H   0  0  0  0  0  0  0  0  0  0  0  0
    1.2240    2.0250   -0.1300 H   0  0  0  0  0  0  0  0  0  0  0  0
    1.7740    1.0540    1.2190 H   0  0  0  0  0  0  0  0  0  0  0  0
   -1.8450    0.0670    0.4910 H   0  0  0  0  0  0  0  0  0  0  0  0
   -1.0990    1.6550    0.4270 H   0  0  0  0  0  0  0  0  0  0  0  0
   -0.7550    0.6060    1.7870 H   0  0  0  0  0  0  0  0  0  0  0  0
    2.7110   -3.0110    1.2700 H   0  0  0  0  0  0  0  0  0  0  0  0
    1.7730   -4.2370    0.4470 H   0  0  0  0  0  0  0  0  0  0  0  0
   -3.5140   -9.6170    1.7800 H   0  0  0  0  0  0  0  0  0  0  0  0
   -9.1690   -2.6380    2.1590 H   0  0  0  0  0  0  0  0  0  0  0  0
   -6.6220   -6.6620    2.2870 H   0  0  0  0  0  0  0  0  0  0  0  0
   -8.2450   -4.9420    1.3300 H   0  0  0  0  0  0  0  0  0  0  0  0
   -7.0910   -4.1000    2.3990 H   0  0  0  0  0  0  0  0  0  0  0  0
   -5.5270   -1.5190   -3.1610 H   0  0  0  0  0  0  0  0  0  0  0  0
  -10.0250   -0.5660    0.7100 H   0  0  0  0  0  0  0  0  0  0  0  0
   -8.4690    0.2690    0.7680 H   0  0  0  0  0  0  0  0  0  0  0  0
   -9.8650   -0.7780   -1.7550 H   0  0  0  0  0  0  0  0  0  0  0  0
   -7.2490    0.8430   -1.7840 H   0  0  0  0  0  0  0  0  0  0  0  0
   -8.0350   -0.0000   -3.1290 H   0  0  0  0  0  0  0  0  0  0  0  0
   -2.0700   -4.1380   -0.8990 H   0  0  0  0  0  0  0  0  0  0  0  0
   -4.0040   -7.2930   -2.4330 H   0  0  0  0  0  0  0  0  0  0  0  0
   -3.3630   -5.7990   -3.0560 H   0  0  0  0  0  0  0  0  0  0  0  0
   -1.6460   -7.9020   -1.6400 H   0  0  0  0  0  0  0  0  0  0  0  0
   -1.9010   -7.8850   -3.3670 H   0  0  0  0  0  0  0  0  0  0  0  0
   -9.9730    1.5800   -2.4660 H   0  0  0  0  0  0  0  0  0  0  0  0
   -9.2050    2.1090   -0.9720 H   0  0  0  0  0  0  0  0  0  0  0  0
  -11.6940    2.4060   -1.0060 H   0  0  0  0  0  0  0  0  0  0  0  0
  -11.1580    1.4040    0.3470 H   0  0  0  0  0  0  0  0  0  0  0  0
  -11.8960    0.6430   -1.0820 H   0  0  0  0  0  0  0  0  0  0  0  0
   -6.1570   -9.9730    2.8970 H   0  0  0  0  0  0  0  0  0  0  0  0
   -4.9300   -9.3260    4.0200 H   0  0  0  0  0  0  0  0  0  0  0  0
   -6.4890   -8.5120    3.8470 H   0  0  0  0  0  0  0  0  0  0  0  0
    2.6120   -0.4180    6.8140 H   0  0  0  0  0  0  0  0  0  0  0  0
    3.4590    1.6010    6.2740 H   0  0  0  0  0  0  0  0  0  0  0  0
    0.3050   -4.3600    7.5360 H   0  0  0  0  0  0  0  0  0  0  0  0
    1.9600   -2.5820    7.4210 H   0  0  0  0  0  0  0  0  0  0  0  0
    2.5540    6.6920    3.5830 H   0  0  0  0  0  0  0  0  0  0  0  0
    4.5720    3.5360    5.6600 H   0  0  0  0  0  0  0  0  0  0  0  0
   -4.7580   -2.5720    5.2460 H   0  0  0  0  0  0  0  0  0  0  0  0
   -4.2350   -4.8080    6.2270 H   0  0  0  0  0  0  0  0  0  0  0  0
   -1.9490   -5.1870    7.1110 H   0  0  0  0  0  0  0  0  0  0  0  0
   -2.5410    0.1030    4.1130 H   0  0  0  0  0  0  0  0  0  0  0  0
   -1.9570    2.2270    2.8470 H   0  0  0  0  0  0  0  0  0  0  0  0
   -0.5750    3.2260    2.3510 H   0  0  0  0  0  0  0  0  0  0  0  0
   -0.4980    5.6280    4.5750 H   0  0  0  0  0  0  0  0  0  0  0  0
   -3.4640    4.1060    2.8310 H   0  0  0  0  0  0  0  0  0  0  0  0
   -2.1530    5.2680    2.6750 H   0  0  0  0  0  0  0  0  0  0  0  0
   -2.8960    3.1870    0.5510 H   0  0  0  0  0  0  0  0  0  0  0  0
   -1.5670    4.3500    0.4320 H   0  0  0  0  0  0  0  0  0  0  0  0
   -3.2310    6.2330    0.6450 H   0  0  0  0  0  0  0  0  0  0  0  0
   -4.5410    5.0470    0.6790 H   0  0  0  0  0  0  0  0  0  0  0  0
   -2.5460    5.3930   -1.6270 H   0  0  0  0  0  0  0  0  0  0  0  0
   -4.2150    5.9870   -1.6020 H   0  0  0  0  0  0  0  0  0  0  0  0
   -3.8960    4.2440   -1.5930 H   0  0  0  0  0  0  0  0  0  0  0  0
    5.8440    5.4790    4.8770 H   0  0  0  0  0  0  0  0  0  0  0  0
    4.9960    6.8320    4.1710 H   0  0  0  0  0  0  0  0  0  0  0  0
  1  3  2  0
  1  5  1  0
  1 20  1  0
  2  4  1  0
  2  6  2  0
  2 26  1  0
  3 12  1  0
  3 23  1  0
  4 13  2  0
  4 29  1  0
  5 15  2  0
  5 30  1  0
  6 16  1  0
  6 33  1  0
  7  9  2  0
  7 12  1  0
  7 25  1  0
  8 10  1  0
  8 13  1  0
  8134  1  0
  8135  1  0
  9 14  1  0
  9 41  1  0
 10 14  2  0
 10136  1  0
 11 15  1  0
 11 16  2  0
 11137  1  0
 12 17  2  0
 13 18  1  0
 14 19  1  0
 15 17  1  0
 16 18  1  0
 17 19  1  0
 18 19  2  0
 20 21  2  0
 20 32  1  0
 21 22  1  0
 21138  1  0
 22 23  2  0
 22 36  1  0
 23 24  1  0
 24 25  2  0
 24139  1  0
 25140  1  0
 26 27  2  0
 26141  1  0
 27 28  1  0
 27 42  1  0
 28 29  2  0
 28 35  1  0
 29142  1  0
 30 31  1  0
 30 40  1  0
 30143  1  6
 31 32  1  0
 31 37  1  1
 31 38  1  0
 32144  1  0
 32145  1  0
 33 34  2  0
 33146  1  0
 35147  1  0
 36148  1  0
 37 39  1  0
 37149  1  0
 37150  1  0
 38133  1  0
 38151  1  0
 38152  1  0
 39153  1  0
 39154  1  0
 39155  1  0
 40156  1  0
 40157  1  0
 40158  1  0
 41 71  1  0
 41159  1  0
 41160  1  0
 42161  1  0
 42162  1  0
 42163  1  0
 43 44  2  0
 43 46  1  0
 43 52  1  0
 44 47  1  0
 44 55  1  0
 45 48  2  0
 45 49  1  0
 45164  1  0
 46 50  2  0
 46 61  1  0
 47 51  2  0
 47 64  1  0
 48 50  1  0
 48 63  1  0
 49 51  1  0
 49165  1  0
 49166  1  0
 50 51  1  0
 52 53  2  0
 52 56  1  0
 53 54  1  0
 53 59  1  0
 54 55  2  0
 54167  1  0
 55 66  1  0
 56 57  2  0
 56 60  1  0
 57 58  1  0
 57168  1  0
 58 59  2  0
 58169  1  0
 59 67  1  0
 60 61  2  0
 60170  1  0
 61 62  1  0
 62 63  1  0
 62171  1  0
 62172  1  0
 63173  1  0
 63174  1  0
 64 65  1  0
 64 69  1  6
 64 70  1  0
 65 66  1  0
 65 68  1  0
 65175  1  1
 66 71  1  0
 66176  1  6
 67 97  1  0
 68177  1  0
 68178  1  0
 68179  1  0
 69180  1  0
 69181  1  0
 69182  1  0
 70183  1  0
 70184  1  0
 70185  1  0
 71186  1  0
 71187  1  0
 72 73  2  0
 72 75  1  0
 72188  1  0
 73 77  1  0
 73100  1  0
 74 76  2  0
 74 78  1  0
 74189  1  0
 75 84  2  0
 76 83  1  0
 76 91  1  0
 77 87  2  0
 77190  1  0
 78 88  1  0
 78191  1  0
 78192  1  0
 79 80  1  0
 79 83  2  0
 79 93  1  0
 80 85  1  0
 80193  1  0
 81 84  1  0
 81 86  1  0
 81 94  1  0
 81 96  1  6
 82 85  2  0
 82 86  1  0
 83 89  1  0
 84 87  1  0
 85 89  1  0
 86 90  2  0
 87 90  1  0
 88 89  2  0
 88 90  1  0
 91 92  1  0
 91194  1  0
 91195  1  0
 92 93  1  0
 92 98  1  0
 92196  1  6
 93197  1  0
 93198  1  0
 94 95  2  0
 94199  1  0
 96 97  1  0
 96200  1  0
 96201  1  0
 97202  1  0
 97203  1  0
 98 99  1  0
 98204  1  0
 98205  1  0
 99206  1  0
 99207  1  0
 99208  1  0
100209  1  0
100210  1  0
100211  1  0
101102  1  0
101105  2  0
101111  1  0
102106  2  0
102114  1  0
103104  2  0
103107  1  0
103115  1  0
104108  1  0
104118  1  0
105109  1  0
105123  1  0
106110  1  0
106212  1  0
107109  2  0
107125  1  0
108110  2  0
108213  1  0
109110  1  0
111112  2  0
111119  1  0
112113  1  0
112122  1  0
113114  2  0
113214  1  0
114215  1  0
115116  2  0
115128  1  0
116117  1  0
116216  1  0
117118  2  0
117133  1  0
118217  1  0
119120  2  0
120121  1  0
120218  1  0
121122  2  0
121219  1  0
122220  1  0
123124  2  0
123221  1  0
125126  2  0
125127  1  0
127129  1  0
127222  1  0
127223  1  0
128224  1  0
129130  1  0
129225  1  0
129226  1  0
130131  1  0
130227  1  0
130228  1  0
131132  1  0
131229  1  0
131230  1  0
132231  1  0
132232  1  0
132233  1  0
133234  1  0
133235  1  0
M  END
