
     RDKit          3D

211236  0  0  0  0  0  0  0  0999 V2000
   -6.5030    6.2310   -1.6010 C   0  0  0  0  0  0  0  0  0  0  0  0
   -2.1140   -3.2300   -4.0900 C   0  0  0  0  0  0  0  0  0  0  0  0
   -5.7740    6.0270   -2.7660 C   0  0  0  0  0  0  0  0  0  0  0  0
   -2.6980   -3.2600   -2.7820 C   0  0  0  0  0  0  0  0  0  0  0  0
   -6.2760    5.4420   -0.4630 C   0  0  0  0  0  0  0  0  0  0  0  0
   -1.9440   -2.0010   -4.8200 C   0  0  0  0  0  0  0  0  0  0  0  0
   -4.7880    5.0320   -2.7610 C   0  0  0  0  0  0  0  0  0  0  0  0
   -3.0230   -2.0630   -2.1530 C   0  0  0  0  0  0  0  0  0  0  0  0
   -5.0730    3.5120    0.6030 C   0  0  0  0  0  0  0  0  0  0  0  0
   -4.3190    2.3420    0.4230 C   0  0  0  0  0  0  0  0  0  0  0  0
   -2.4500    0.5440   -4.5060 N   0  0  0  0  0  0  0  0  0  0  0  0
   -3.8270    0.5760   -1.2370 C   0  0  0  0  0  0  0  0  0  0  0  0
   -3.4290    2.6300   -3.2130 C   0  0  0  0  0  0  0  0  0  0  0  0
   -5.3990    4.3410   -0.5000 C   0  0  0  0  0  0  0  0  0  0  0  0
   -2.4060   -0.8240   -4.2020 C   0  0  0  0  0  0  0  0  0  0  0  0
   -4.0800    1.9100   -0.8990 C   0  0  0  0  0  0  0  0  0  0  0  0
   -3.0190    1.2880   -3.4620 C   0  0  0  0  0  0  0  0  0  0  0  0
   -4.7400    4.0780   -1.7260 C   0  0  0  0  0  0  0  0  0  0  0  0
   -2.9330   -0.9170   -2.9370 C   0  0  0  0  0  0  0  0  0  0  0  0
   -4.0590    2.8730   -1.9400 C   0  0  0  0  0  0  0  0  0  0  0  0
   -3.2830    0.3490   -2.4940 C   0  0  0  0  0  0  0  0  0  0  0  0
   -3.8490    4.9640   -3.8060 C   0  0  0  0  0  0  0  0  0  0  0  0
   -3.2620    3.7090   -4.1040 C   0  0  0  0  0  0  0  0  0  0  0  0
   -3.3340   -1.8760   -0.7510 N   0  0  0  0  0  0  0  0  0  0  0  0
   -4.2470   -0.7040   -0.5030 C   0  0  0  0  0  0  0  0  0  0  0  0
   -6.0540    6.8160   -4.0390 C   0  0  0  0  0  0  0  0  0  0  0  0
   -5.0320    6.5290   -5.1840 C   0  0  0  0  0  0  0  0  0  0  0  0
   -3.6260    6.2760   -4.6010 C   0  0  2  0  0  0  0  0  0  0  0  0
   -2.5290    6.1130   -5.6660 C   0  0  0  0  0  0  0  0  0  0  0  0
   -2.8060    5.7520   -6.8200 O   0  0  0  0  0  0  0  0  0  0  0  0
   -1.0590    6.4310   -5.3290 C   0  0  0  0  0  0  0  0  0  0  0  0
   -7.4430    7.2270   -1.5430 O   0  0  0  0  0  0  0  0  0  0  0  0
   -3.0920   -4.7680   -1.8890 S   0  0  0  0  0  0  0  0  0  0  0  0
   -7.0110    5.7810    0.6450 O   0  0  0  0  0  0  0  0  0  0  0  0
   -0.4680    5.9080   -4.0140 C   0  0  0  0  0  0  0  0  0  0  0  0
   -3.2860    7.5480   -3.7620 C   0  0  0  0  0  0  0  0  0  0  0  0
   -2.0530   -1.7860   -0.0320 C   0  0  0  0  0  0  0  0  0  0  0  0
   -1.5300   -4.5220   -4.6650 C   0  0  0  0  0  0  0  0  0  0  0  0
   -3.5420    1.7530    1.6060 C   0  0  0  0  0  0  0  0  0  0  0  0
    1.4750    6.9090    0.1760 C   0  0  0  0  0  0  0  0  0  0  0  0
    1.3560    7.1050   -1.2260 C   0  0  0  0  0  0  0  0  0  0  0  0
    5.7320    8.5870   -0.7050 C   0  0  0  0  0  0  0  0  0  0  0  0
    2.6700    7.2740    0.8590 C   0  0  0  0  0  0  0  0  0  0  0  0
    2.4640    7.5980   -1.9470 C   0  0  0  0  0  0  0  0  0  0  0  0
    5.0830    8.2120    0.4510 C   0  0  0  0  0  0  0  0  0  0  0  0
    4.8360    8.4080   -1.7320 N   0  0  0  0  0  0  0  0  0  0  0  0
    3.7670    7.7630    0.1100 C   0  0  0  0  0  0  0  0  0  0  0  0
    3.6450    7.9060   -1.2620 C   0  0  0  0  0  0  0  0  0  0  0  0
    0.3750    6.3950    0.9030 C   0  0  0  0  0  0  0  0  0  0  0  0
   -0.8710    6.1830    0.2670 C   0  0  0  0  0  0  0  0  0  0  0  0
   -0.9720    6.3740   -1.1130 C   0  0  0  0  0  0  0  0  0  0  0  0
    0.1340    6.7870   -1.8660 C   0  0  0  0  0  0  0  0  0  0  0  0
    0.4870    6.0670    2.2750 C   0  0  0  0  0  0  0  0  0  0  0  0
   -0.6280    5.6680    3.0200 C   0  0  0  0  0  0  0  0  0  0  0  0
   -1.8800    5.5990    2.4160 C   0  0  0  0  0  0  0  0  0  0  0  0
   -1.9880    5.8120    1.0390 C   0  0  0  0  0  0  0  0  0  0  0  0
    2.7030    7.2330    2.3800 C   0  0  2  0  0  0  0  0  0  0  0  0
    1.8550    6.0770    2.9130 C   0  0  0  0  0  0  0  0  0  0  0  0
    7.0830    9.0810   -0.8400 C   0  0  0  0  0  0  0  0  0  0  0  0
    7.8660    9.2200    0.0950 O   0  0  0  0  0  0  0  0  0  0  0  0
   -3.3160    5.2430    3.4050 S   0  0  0  0  0  0  0  0  0  0  0  0
    0.0110    7.0190   -3.2220 O   0  0  0  0  0  0  0  0  0  0  0  0
    2.2650    8.5870    2.9670 C   0  0  0  0  0  0  0  0  0  0  0  0
    1.3450    0.8820    2.8390 C   0  0  0  0  0  0  0  0  0  0  0  0
    0.3510    1.3120    1.9260 C   0  0  0  0  0  0  0  0  0  0  0  0
    4.0220    2.6140   -0.4610 C   0  0  0  0  0  0  0  0  0  0  0  0
    2.6910    1.2640    2.6190 C   0  0  0  0  0  0  0  0  0  0  0  0
    0.6770    1.8570    0.7340 N   0  0  0  0  0  0  0  0  0  0  0  0
    4.2590    2.3140    0.8310 C   0  0  0  0  0  0  0  0  0  0  0  0
    2.5840    2.3460   -0.8470 C   0  0  1  0  0  0  0  0  0  0  0  0
    3.0090    1.8660    1.4230 C   0  0  0  0  0  0  0  0  0  0  0  0
    1.9850    2.0510    0.4990 C   0  0  0  0  0  0  0  0  0  0  0  0
    1.0090    0.0330    3.9160 C   0  0  0  0  0  0  0  0  0  0  0  0
   -0.3560   -0.2780    4.1440 C   0  0  0  0  0  0  0  0  0  0  0  0
   -1.3460    0.3130    3.3410 C   0  0  0  0  0  0  0  0  0  0  0  0
   -1.0050    1.1070    2.2400 C   0  0  0  0  0  0  0  0  0  0  0  0
    2.0140   -0.5910    4.7010 C   0  0  0  0  0  0  0  0  0  0  0  0
    1.6590   -1.5250    5.6880 C   0  0  0  0  0  0  0  0  0  0  0  0
    0.3230   -1.8510    5.8650 C   0  0  0  0  0  0  0  0  0  0  0  0
   -0.6810   -1.2210    5.1350 C   0  0  0  0  0  0  0  0  0  0  0  0
    3.7070    0.9970    3.6970 C   0  0  0  0  0  0  0  0  0  0  0  0
    3.4840   -0.3700    4.3810 C   0  0  2  0  0  0  0  0  0  0  0  0
    1.9290    3.4830   -1.5670 C   0  0  0  0  0  0  0  0  0  0  0  0
    1.7250    3.4500   -2.7870 O   0  0  0  0  0  0  0  0  0  0  0  0
    0.0190   -2.8540    6.7400 O   0  0  0  0  0  0  0  0  0  0  0  0
    4.0330   -1.4980    3.4960 C   0  0  0  0  0  0  0  0  0  0  0  0
   -2.0310    1.6960    1.2790 C   0  0  0  0  0  0  0  0  0  0  0  0
    5.8540   -5.8600   -0.8640 C   0  0  0  0  0  0  0  0  0  0  0  0
    5.4350   -6.5830    0.2590 C   0  0  0  0  0  0  0  0  0  0  0  0
   -2.6830   -8.4130   -2.2780 C   0  0  0  0  0  0  0  0  0  0  0  0
   -2.0670   -8.7220   -1.0430 C   0  0  0  0  0  0  0  0  0  0  0  0
    4.9870   -5.6320   -1.9270 C   0  0  0  0  0  0  0  0  0  0  0  0
    4.1210   -7.0760    0.3380 C   0  0  0  0  0  0  0  0  0  0  0  0
   -2.0110   -7.7130   -3.2980 C   0  0  0  0  0  0  0  0  0  0  0  0
   -0.7300   -8.3320   -0.8360 C   0  0  0  0  0  0  0  0  0  0  0  0
    2.7440   -5.9160   -2.9860 C   0  0  0  0  0  0  0  0  0  0  0  0
    0.2290   -6.3570   -3.8620 C   0  0  1  0  0  0  0  0  0  0  0  0
    1.9370   -7.3590   -0.6760 C   0  0  0  0  0  0  0  0  0  0  0  0
    3.6700   -6.1210   -1.9140 C   0  0  0  0  0  0  0  0  0  0  0  0
    3.2430   -6.8370   -0.7460 C   0  0  0  0  0  0  0  0  0  0  0  0
   -0.7360   -7.2390   -3.0550 C   0  0  0  0  0  0  0  0  0  0  0  0
    1.4570   -6.4250   -2.9180 C   0  0  0  0  0  0  0  0  0  0  0  0
   -0.1490   -7.5830   -1.8530 C   0  0  0  0  0  0  0  0  0  0  0  0
    1.1120   -7.1270   -1.7800 C   0  0  0  0  0  0  0  0  0  0  0  0
    0.0610   -8.6120    0.3100 C   0  0  0  0  0  0  0  0  0  0  0  0
    1.4240   -8.1100    0.4120 C   0  0  0  0  0  0  0  0  0  0  0  0
    2.3470   -8.3130    1.4700 C   0  0  0  0  0  0  0  0  0  0  0  0
    3.6700   -7.8240    1.4430 C   0  0  0  0  0  0  0  0  0  0  0  0
    6.4490   -6.9080    1.3290 C   0  0  0  0  0  0  0  0  0  0  0  0
    5.8140   -7.2080    2.6880 C   0  0  1  0  0  0  0  0  0  0  0  0
    4.6300   -8.1680    2.5590 C   0  0  0  0  0  0  0  0  0  0  0  0
   -2.7800   -9.4130    0.0860 C   0  0  0  0  0  0  0  0  0  0  0  0
   -1.8050  -10.2510    0.9150 C   0  0  0  0  0  0  0  0  0  0  0  0
   -0.5670   -9.4820    1.3830 C   0  0  0  0  0  0  0  0  0  0  0  0
    3.1510   -5.1480   -4.1700 C   0  0  0  0  0  0  0  0  0  0  0  0
    4.0070   -5.5530   -4.9460 O   0  0  0  0  0  0  0  0  0  0  0  0
    6.8700   -7.8180    3.6170 C   0  0  0  0  0  0  0  0  0  0  0  0
    7.9990   -8.1210    3.2110 O   0  0  0  0  0  0  0  0  0  0  0  0
    6.4960   -8.0750    5.0600 C   0  0  0  0  0  0  0  0  0  0  0  0
   -3.9770   -8.7510   -2.5560 O   0  0  0  0  0  0  0  0  0  0  0  0
    1.9530   -9.0110    2.5780 O   0  0  0  0  0  0  0  0  0  0  0  0
    0.4940   -6.9570   -5.2460 C   0  0  0  0  0  0  0  0  0  0  0  0
    6.2790   -9.5660    5.2840 C   0  0  0  0  0  0  0  0  0  0  0  0
    6.1180   -9.8860    6.7600 C   0  0  0  0  0  0  0  0  0  0  0  0
   -0.2250   -4.8720   -3.9290 C   0  0  0  0  0  0  0  0  0  0  0  0
   -1.4760   -1.9840   -5.8010 H   0  0  0  0  0  0  0  0  0  0  0  0
   -5.3510    3.8060    1.6060 H   0  0  0  0  0  0  0  0  0  0  0  0
   -2.1100    0.9450   -5.3740 H   0  0  0  0  0  0  0  0  0  0  0  0
   -2.7020    3.5590   -5.0190 H   0  0  0  0  0  0  0  0  0  0  0  0
   -5.2570   -0.9710   -0.8520 H   0  0  0  0  0  0  0  0  0  0  0  0
   -4.3430   -0.5760    0.5710 H   0  0  0  0  0  0  0  0  0  0  0  0
   -6.0370    7.8880   -3.8160 H   0  0  0  0  0  0  0  0  0  0  0  0
   -7.0580    6.5680   -4.4020 H   0  0  0  0  0  0  0  0  0  0  0  0
   -5.0340    7.3710   -5.8910 H   0  0  0  0  0  0  0  0  0  0  0  0
   -5.3770    5.6530   -5.7610 H   0  0  0  0  0  0  0  0  0  0  0  0
   -0.4670    6.0010   -6.1470 H   0  0  0  0  0  0  0  0  0  0  0  0
   -0.9370    7.5220   -5.4140 H   0  0  0  0  0  0  0  0  0  0  0  0
   -7.7610    7.2000   -0.6170 H   0  0  0  0  0  0  0  0  0  0  0  0
   -1.8960   -4.8940   -1.3120 H   0  0  0  0  0  0  0  0  0  0  0  0
   -6.9550    5.0490    1.2790 H   0  0  0  0  0  0  0  0  0  0  0  0
    0.3980    5.2760   -4.2350 H   0  0  0  0  0  0  0  0  0  0  0  0
   -1.1750    5.2990   -3.4610 H   0  0  0  0  0  0  0  0  0  0  0  0
   -3.4310    8.4530   -4.3700 H   0  0  0  0  0  0  0  0  0  0  0  0
   -3.8600    7.6630   -2.8440 H   0  0  0  0  0  0  0  0  0  0  0  0
   -2.2580    7.5930   -3.4300 H   0  0  0  0  0  0  0  0  0  0  0  0
   -1.4370   -0.9610   -0.4090 H   0  0  0  0  0  0  0  0  0  0  0  0
   -1.4900   -2.7220   -0.0910 H   0  0  0  0  0  0  0  0  0  0  0  0
   -2.2640   -1.5820    1.0300 H   0  0  0  0  0  0  0  0  0  0  0  0
   -1.3360   -4.4120   -5.7410 H   0  0  0  0  0  0  0  0  0  0  0  0
   -2.2780   -5.3160   -4.5920 H   0  0  0  0  0  0  0  0  0  0  0  0
   -3.9470    0.7810    1.8840 H   0  0  0  0  0  0  0  0  0  0  0  0
   -3.6850    2.3680    2.4930 H   0  0  0  0  0  0  0  0  0  0  0  0
    2.3960    7.7420   -3.0240 H   0  0  0  0  0  0  0  0  0  0  0  0
    5.5130    8.2380    1.4450 H   0  0  0  0  0  0  0  0  0  0  0  0
    5.0100    8.6320   -2.7030 H   0  0  0  0  0  0  0  0  0  0  0  0
   -1.9340    6.2030   -1.5880 H   0  0  0  0  0  0  0  0  0  0  0  0
   -0.5120    5.4390    4.0780 H   0  0  0  0  0  0  0  0  0  0  0  0
   -2.9590    5.7140    0.5620 H   0  0  0  0  0  0  0  0  0  0  0  0
    3.7310    7.0430    2.7170 H   0  0  0  0  0  0  0  0  0  0  0  0
    1.7760    6.1340    4.0040 H   0  0  0  0  0  0  0  0  0  0  0  0
    2.3360    5.1190    2.6740 H   0  0  0  0  0  0  0  0  0  0  0  0
    7.3850    9.3510   -1.8640 H   0  0  0  0  0  0  0  0  0  0  0  0
   -2.8720    5.8160    4.5300 H   0  0  0  0  0  0  0  0  0  0  0  0
    1.5490    8.4690    3.7850 H   0  0  0  0  0  0  0  0  0  0  0  0
    1.8120    9.2470    2.2160 H   0  0  0  0  0  0  0  0  0  0  0  0
    3.1290    9.1160    3.3880 H   0  0  0  0  0  0  0  0  0  0  0  0
    4.7710    2.9610   -1.1610 H   0  0  0  0  0  0  0  0  0  0  0  0
    5.1980    2.3910    1.3560 H   0  0  0  0  0  0  0  0  0  0  0  0
    2.5350    1.4460   -1.4730 H   0  0  0  0  0  0  0  0  0  0  0  0
   -2.3930    0.0740    3.5260 H   0  0  0  0  0  0  0  0  0  0  0  0
    2.4200   -2.0350    6.2710 H   0  0  0  0  0  0  0  0  0  0  0  0
   -1.7200   -1.4890    5.3130 H   0  0  0  0  0  0  0  0  0  0  0  0
    3.6040    1.7970    4.4440 H   0  0  0  0  0  0  0  0  0  0  0  0
    4.7300    1.0570    3.3050 H   0  0  0  0  0  0  0  0  0  0  0  0
    4.0590   -0.3610    5.3150 H   0  0  0  0  0  0  0  0  0  0  0  0
    1.6600    4.3600   -0.9710 H   0  0  0  0  0  0  0  0  0  0  0  0
   -0.7020   -3.3590    6.3210 H   0  0  0  0  0  0  0  0  0  0  0  0
    3.9390   -2.4780    3.9860 H   0  0  0  0  0  0  0  0  0  0  0  0
    5.1040   -1.3280    3.3020 H   0  0  0  0  0  0  0  0  0  0  0  0
    3.5220   -1.5570    2.5270 H   0  0  0  0  0  0  0  0  0  0  0  0
   -1.7200    2.7340    1.0750 H   0  0  0  0  0  0  0  0  0  0  0  0
   -1.8740    1.1520    0.3430 H   0  0  0  0  0  0  0  0  0  0  0  0
    6.8780   -5.5020   -0.9320 H   0  0  0  0  0  0  0  0  0  0  0  0
    5.3750   -5.0960   -2.7900 H   0  0  0  0  0  0  0  0  0  0  0  0
   -2.5170   -7.5150   -4.2370 H   0  0  0  0  0  0  0  0  0  0  0  0
    7.1380   -6.0600    1.4440 H   0  0  0  0  0  0  0  0  0  0  0  0
    7.0460   -7.7520    0.9730 H   0  0  0  0  0  0  0  0  0  0  0  0
    5.4820   -6.2550    3.1360 H   0  0  0  0  0  0  0  0  0  0  0  0
    4.0960   -8.1920    3.5100 H   0  0  0  0  0  0  0  0  0  0  0  0
    5.0060   -9.1800    2.3650 H   0  0  0  0  0  0  0  0  0  0  0  0
   -3.2470   -8.6470    0.7160 H   0  0  0  0  0  0  0  0  0  0  0  0
   -3.5680  -10.0710   -0.2860 H   0  0  0  0  0  0  0  0  0  0  0  0
   -1.4790  -11.1040    0.3080 H   0  0  0  0  0  0  0  0  0  0  0  0
   -2.3230  -10.6730    1.7840 H   0  0  0  0  0  0  0  0  0  0  0  0
   -0.8260   -8.8570    2.2460 H   0  0  0  0  0  0  0  0  0  0  0  0
    0.1460  -10.2440    1.7010 H   0  0  0  0  0  0  0  0  0  0  0  0
    2.6480   -4.1740   -4.3150 H   0  0  0  0  0  0  0  0  0  0  0  0
    7.3280   -7.7020    5.6730 H   0  0  0  0  0  0  0  0  0  0  0  0
    5.6120   -7.4950    5.3380 H   0  0  0  0  0  0  0  0  0  0  0  0
   -4.4630   -8.8230   -1.7210 H   0  0  0  0  0  0  0  0  0  0  0  0
    2.5150   -9.8040    2.6220 H   0  0  0  0  0  0  0  0  0  0  0  0
   -0.4320   -7.0270   -5.8350 H   0  0  0  0  0  0  0  0  0  0  0  0
    1.2040   -6.3490   -5.8200 H   0  0  0  0  0  0  0  0  0  0  0  0
    0.9140   -7.9720   -5.1830 H   0  0  0  0  0  0  0  0  0  0  0  0
    5.3910   -9.9030    4.7420 H   0  0  0  0  0  0  0  0  0  0  0  0
    7.1290  -10.1340    4.8870 H   0  0  0  0  0  0  0  0  0  0  0  0
    5.2570   -9.3620    7.1840 H   0  0  0  0  0  0  0  0  0  0  0  0
    7.0090   -9.6040    7.3260 H   0  0  0  0  0  0  0  0  0  0  0  0
    5.9490  -10.9610    6.8960 H   0  0  0  0  0  0  0  0  0  0  0  0
   -0.2550   -4.4780   -2.9080 H   0  0  0  0  0  0  0  0  0  0  0  0
    0.5510   -4.2810   -4.4160 H   0  0  0  0  0  0  0  0  0  0  0  0
  1  3  2  0
  1  5  1  0
  1 32  1  0
  2  4  2  0
  2  6  1  0
  2 38  1  0
  3  7  1  0
  3 26  1  0
  4  8  1  0
  4 33  1  0
  5 14  2  0
  5 34  1  0
  6 15  2  0
  6126  1  0
  7 18  2  0
  7 22  1  0
  8 19  2  0
  8 24  1  0
  9 10  2  0
  9 14  1  0
  9127  1  0
 10 16  1  0
 10 39  1  0
 11 15  1  0
 11 17  1  0
 11128  1  0
 12 16  2  0
 12 21  1  0
 12 25  1  0
 13 17  1  0
 13 20  2  0
 13 23  1  0
 14 18  1  0
 15 19  1  0
 16 20  1  0
 17 21  2  0
 18 20  1  0
 19 21  1  0
 22 23  2  0
 22 28  1  0
 23129  1  0
 24 25  1  0
 24 37  1  0
 25130  1  0
 25131  1  0
 26 27  1  0
 26132  1  0
 26133  1  0
 27 28  1  0
 27134  1  0
 27135  1  0
 28 29  1  0
 28 36  1  1
 29 30  2  0
 29 31  1  0
 31 35  1  0
 31136  1  0
 31137  1  0
 32138  1  0
 33139  1  0
 34140  1  0
 35 62  1  0
 35141  1  0
 35142  1  0
 36143  1  0
 36144  1  0
 36145  1  0
 37146  1  0
 37147  1  0
 37148  1  0
 38125  1  0
 38149  1  0
 38150  1  0
 39 87  1  0
 39151  1  0
 39152  1  0
 40 41  2  0
 40 43  1  0
 40 49  1  0
 41 44  1  0
 41 52  1  0
 42 45  2  0
 42 46  1  0
 42 59  1  0
 43 47  2  0
 43 57  1  0
 44 48  2  0
 44153  1  0
 45 47  1  0
 45154  1  0
 46 48  1  0
 46155  1  0
 47 48  1  0
 49 50  2  0
 49 53  1  0
 50 51  1  0
 50 56  1  0
 51 52  2  0
 51156  1  0
 52 62  1  0
 53 54  2  0
 53 58  1  0
 54 55  1  0
 54157  1  0
 55 56  2  0
 55 61  1  0
 56158  1  0
 57 58  1  0
 57 63  1  0
 57159  1  6
 58160  1  0
 58161  1  0
 59 60  2  0
 59162  1  0
 61163  1  0
 63164  1  0
 63165  1  0
 63166  1  0
 64 65  2  0
 64 67  1  0
 64 73  1  0
 65 68  1  0
 65 76  1  0
 66 69  2  0
 66 70  1  0
 66167  1  0
 67 71  2  0
 67 81  1  0
 68 72  2  0
 69 71  1  0
 69168  1  0
 70 72  1  0
 70 83  1  0
 70169  1  6
 71 72  1  0
 73 74  2  0
 73 77  1  0
 74 75  1  0
 74 80  1  0
 75 76  2  0
 75170  1  0
 76 87  1  0
 77 78  2  0
 77 82  1  0
 78 79  1  0
 78171  1  0
 79 80  2  0
 79 85  1  0
 80172  1  0
 81 82  1  0
 81173  1  0
 81174  1  0
 82 86  1  0
 82175  1  1
 83 84  2  0
 83176  1  0
 85177  1  0
 86178  1  0
 86179  1  0
 86180  1  0
 87181  1  0
 87182  1  0
 88 89  2  0
 88 92  1  0
 88183  1  0
 89 93  1  0
 89109  1  0
 90 91  2  0
 90 94  1  0
 90120  1  0
 91 95  1  0
 91112  1  0
 92 99  2  0
 92184  1  0
 93100  2  0
 93108  1  0
 94101  2  0
 94185  1  0
 95103  2  0
 95105  1  0
 96 99  1  0
 96102  2  0
 96115  1  0
 97101  1  0
 97102  1  0
 97122  1  6
 97125  1  0
 98100  1  0
 98104  2  0
 98106  1  0
 99100  1  0
101103  1  0
102104  1  0
103104  1  0
105106  2  0
105114  1  0
106107  1  0
107108  2  0
107121  1  0
108111  1  0
109110  1  0
109186  1  0
109187  1  0
110111  1  0
110117  1  0
110188  1  1
111189  1  0
111190  1  0
112113  1  0
112191  1  0
112192  1  0
113114  1  0
113193  1  0
113194  1  0
114195  1  0
114196  1  0
115116  2  0
115197  1  0
117118  2  0
117119  1  0
119123  1  0
119198  1  0
119199  1  0
120200  1  0
121201  1  0
122202  1  0
122203  1  0
122204  1  0
123124  1  0
123205  1  0
123206  1  0
124207  1  0
124208  1  0
124209  1  0
125210  1  0
125211  1  0
M  END
