
     RDKit          3D

170190  0  0  0  0  0  0  0  0999 V2000
   -2.7540    1.2970    4.4770 C   0  0  0  0  0  0  0  0  0  0  0  0
   -4.1610    1.0970    4.6480 C   0  0  0  0  0  0  0  0  0  0  0  0
   -2.4030   -1.4490    8.1560 C   0  0  0  0  0  0  0  0  0  0  0  0
   -1.8310    0.6860    5.3520 C   0  0  0  0  0  0  0  0  0  0  0  0
   -4.6430    0.3340    5.7600 C   0  0  0  0  0  0  0  0  0  0  0  0
   -1.5580   -0.8980    7.2710 C   0  0  0  0  0  0  0  0  0  0  0  0
   -3.8520   -1.0650    7.8710 C   0  0  2  0  0  0  0  0  0  0  0  0
   -2.3430   -0.0990    6.3580 C   0  0  0  0  0  0  0  0  0  0  0  0
   -3.7060   -0.2380    6.6160 C   0  0  0  0  0  0  0  0  0  0  0  0
   -2.2440    2.1000    3.4260 C   0  0  0  0  0  0  0  0  0  0  0  0
   -3.1290    2.6600    2.4830 C   0  0  0  0  0  0  0  0  0  0  0  0
   -4.5020    2.4230    2.6120 C   0  0  0  0  0  0  0  0  0  0  0  0
   -5.0080    1.6750    3.6840 C   0  0  0  0  0  0  0  0  0  0  0  0
   -0.8530    2.3550    3.3290 C   0  0  0  0  0  0  0  0  0  0  0  0
   -0.3670    3.1790    2.2890 C   0  0  0  0  0  0  0  0  0  0  0  0
   -1.2490    3.7110    1.3490 C   0  0  0  0  0  0  0  0  0  0  0  0
   -2.6150    3.4430    1.4390 C   0  0  0  0  0  0  0  0  0  0  0  0
    0.0150    1.7530    4.2650 C   0  0  0  0  0  0  0  0  0  0  0  0
   -0.4420    0.8630    5.2440 C   0  0  0  0  0  0  0  0  0  0  0  0
    0.5320    0.1430    6.2010 C   0  0  1  0  0  0  0  0  0  0  0  0
   -0.1060   -1.0420    6.9910 C   0  0  0  0  0  0  0  0  0  0  0  0
   -4.4170   -0.3190    9.0730 C   0  0  0  0  0  0  0  0  0  0  0  0
   -5.1700   -0.8850    9.8720 O   0  0  0  0  0  0  0  0  0  0  0  0
   -3.9900    1.1110    9.3150 C   0  0  0  0  0  0  0  0  0  0  0  0
    0.9750    3.4590    2.3110 O   0  0  0  0  0  0  0  0  0  0  0  0
    1.7720   -0.3400    5.3990 C   0  0  0  0  0  0  0  0  0  0  0  0
   -6.1150    0.1420    6.0030 C   0  0  0  0  0  0  0  0  0  0  0  0
    5.7840   -3.4080    4.8230 C   0  0  0  0  0  0  0  0  0  0  0  0
    6.5640   -4.4910    5.2620 C   0  0  0  0  0  0  0  0  0  0  0  0
    8.5280   -3.2950    0.6970 C   0  0  0  0  0  0  0  0  0  0  0  0
    9.2650   -4.3950    1.1740 C   0  0  0  0  0  0  0  0  0  0  0  0
    6.1250   -2.7790    3.5920 C   0  0  0  0  0  0  0  0  0  0  0  0
    7.6230   -4.9650    4.4660 C   0  0  0  0  0  0  0  0  0  0  0  0
    7.4980   -2.7650    1.4910 C   0  0  0  0  0  0  0  0  0  0  0  0
    8.9520   -4.9280    2.4330 C   0  0  0  0  0  0  0  0  0  0  0  0
    7.1680   -3.2920    2.7650 C   0  0  0  0  0  0  0  0  0  0  0  0
    7.9180   -4.3930    3.2240 C   0  0  0  0  0  0  0  0  0  0  0  0
    4.6790   -2.9960    5.6130 C   0  0  0  0  0  0  0  0  0  0  0  0
    4.4430   -3.6800    6.8070 C   0  0  0  0  0  0  0  0  0  0  0  0
    5.1940   -4.7030    7.2670 N   0  0  0  0  0  0  0  0  0  0  0  0
    6.2150   -5.0710    6.4820 C   0  0  0  0  0  0  0  0  0  0  0  0
    8.8410   -2.7550   -0.5630 C   0  0  0  0  0  0  0  0  0  0  0  0
    9.8700   -3.2920   -1.3350 C   0  0  0  0  0  0  0  0  0  0  0  0
   10.5920   -4.3890   -0.8650 C   0  0  0  0  0  0  0  0  0  0  0  0
   10.2940   -4.9330    0.3840 C   0  0  0  0  0  0  0  0  0  0  0  0
    5.3280   -1.5690    3.1500 C   0  0  0  0  0  0  0  0  0  0  0  0
    4.5680   -0.9000    4.2940 C   0  0  0  0  0  0  0  0  0  0  0  0
    3.7370   -1.9290    5.0750 C   0  0  2  0  0  0  0  0  0  0  0  0
    6.8960   -6.1340    6.9890 O   0  0  0  0  0  0  0  0  0  0  0  0
    2.7940   -1.2480    6.1050 C   0  0  0  0  0  0  0  0  0  0  0  0
    2.4110    1.2900   -3.1860 C   0  0  0  0  0  0  0  0  0  0  0  0
    2.9830    0.6020   -2.0660 C   0  0  0  0  0  0  0  0  0  0  0  0
    3.9470    4.9420   -0.6770 C   0  0  0  0  0  0  0  0  0  0  0  0
    2.6250    2.7070   -3.2290 C   0  0  0  0  0  0  0  0  0  0  0  0
    3.5890    1.2890   -1.0080 C   0  0  0  0  0  0  0  0  0  0  0  0
    3.4530    4.8020   -1.9210 C   0  0  0  0  0  0  0  0  0  0  0  0
    4.0570    3.6150    0.0480 C   0  0  2  0  0  0  0  0  0  0  0  0
    3.2030    3.3810   -2.1600 C   0  0  0  0  0  0  0  0  0  0  0  0
    3.6290    2.6700   -1.0410 C   0  0  0  0  0  0  0  0  0  0  0  0
    1.6310    0.5010   -4.1290 C   0  0  0  0  0  0  0  0  0  0  0  0
    1.5160   -0.9020   -3.9380 C   0  0  0  0  0  0  0  0  0  0  0  0
    2.2060   -1.5310   -2.9020 C   0  0  0  0  0  0  0  0  0  0  0  0
    2.9180   -0.7890   -1.9710 C   0  0  0  0  0  0  0  0  0  0  0  0
    0.8930    1.0270   -5.2180 C   0  0  0  0  0  0  0  0  0  0  0  0
    0.0220    0.2510   -5.9890 C   0  0  0  0  0  0  0  0  0  0  0  0
   -0.1510   -1.0920   -5.6990 C   0  0  0  0  0  0  0  0  0  0  0  0
    0.6660   -1.6830   -4.7420 C   0  0  0  0  0  0  0  0  0  0  0  0
    3.1460    3.5530    1.2750 C   0  0  0  0  0  0  0  0  0  0  0  0
    3.6470    3.4670    2.4000 O   0  0  0  0  0  0  0  0  0  0  0  0
    1.6270    3.6460    1.0550 C   0  0  0  0  0  0  0  0  0  0  0  0
   -1.1460   -1.7240   -6.3880 O   0  0  0  0  0  0  0  0  0  0  0  0
    2.2310    3.4260   -4.3320 O   0  0  0  0  0  0  0  0  0  0  0  0
    4.4200    6.2000   -0.0340 C   0  0  0  0  0  0  0  0  0  0  0  0
   -7.2620   -0.4700   -9.1390 C   0  0  0  0  0  0  0  0  0  0  0  0
   -7.0380   -1.6070   -8.3410 C   0  0  0  0  0  0  0  0  0  0  0  0
   -2.6010    3.5790   -5.1940 C   0  0  0  0  0  0  0  0  0  0  0  0
   -3.3430   -1.0550   -3.7710 C   0  0  0  0  0  0  0  0  0  0  0  0
   -6.5270    0.6930   -8.8790 C   0  0  0  0  0  0  0  0  0  0  0  0
   -2.3530    2.5430   -4.2600 C   0  0  0  0  0  0  0  0  0  0  0  0
   -2.8390    0.1600   -3.5180 C   0  0  0  0  0  0  0  0  0  0  0  0
   -3.4360    3.3500   -6.2880 C   0  0  0  0  0  0  0  0  0  0  0  0
   -6.0990   -1.5310   -7.2930 C   0  0  0  0  0  0  0  0  0  0  0  0
   -4.0530   -1.4290   -5.0470 C   0  0  1  0  0  0  0  0  0  0  0  0
   -4.9090    1.9560   -7.5960 C   0  0  0  0  0  0  0  0  0  0  0  0
   -2.9690    1.2660   -4.4930 C   0  0  0  0  0  0  0  0  0  0  0  0
   -5.5920    0.7590   -7.8290 C   0  0  0  0  0  0  0  0  0  0  0  0
   -4.0390    2.1080   -6.5110 C   0  0  0  0  0  0  0  0  0  0  0  0
   -5.3500   -0.3580   -7.0040 C   0  0  0  0  0  0  0  0  0  0  0  0
   -4.4010   -0.2280   -5.9330 C   0  0  0  0  0  0  0  0  0  0  0  0
   -3.7910    1.0310   -5.6380 C   0  0  0  0  0  0  0  0  0  0  0  0
   -8.2160   -0.5160  -10.1710 C   0  0  0  0  0  0  0  0  0  0  0  0
   -8.9360   -1.6820  -10.4190 C   0  0  0  0  0  0  0  0  0  0  0  0
   -8.7070   -2.8140   -9.6370 C   0  0  0  0  0  0  0  0  0  0  0  0
   -7.7610   -2.7830   -8.6070 C   0  0  0  0  0  0  0  0  0  0  0  0
   -2.0340    4.8550   -5.0310 C   0  0  0  0  0  0  0  0  0  0  0  0
   -1.2150    5.1430   -3.9460 C   0  0  0  0  0  0  0  0  0  0  0  0
   -0.9610    4.1490   -3.0170 C   0  0  0  0  0  0  0  0  0  0  0  0
   -1.5040    2.8720   -3.1680 C   0  0  0  0  0  0  0  0  0  0  0  0
   -9.4620   -4.0520   -9.8960 C   0  0  0  0  0  0  0  0  0  0  0  0
  -10.4320   -4.0720  -10.6470 O   0  0  0  0  0  0  0  0  0  0  0  0
   -0.1790    4.4070   -1.9240 O   0  0  0  0  0  0  0  0  0  0  0  0
   -3.3520   -2.5930   -5.8110 C   0  0  0  0  0  0  0  0  0  0  0  0
   -1.8340   -2.7410   -5.6610 C   0  0  0  0  0  0  0  0  0  0  0  0
   -2.1220   -2.1470    8.9330 H   0  0  0  0  0  0  0  0  0  0  0  0
   -4.4460   -1.9620    7.6670 H   0  0  0  0  0  0  0  0  0  0  0  0
   -5.2020    2.8420    1.8910 H   0  0  0  0  0  0  0  0  0  0  0  0
   -6.0850    1.5400    3.7400 H   0  0  0  0  0  0  0  0  0  0  0  0
   -0.9040    4.3530    0.5450 H   0  0  0  0  0  0  0  0  0  0  0  0
   -3.2840    3.8700    0.6930 H   0  0  0  0  0  0  0  0  0  0  0  0
    1.0750    1.9830    4.1950 H   0  0  0  0  0  0  0  0  0  0  0  0
    0.8600    0.8930    6.9360 H   0  0  0  0  0  0  0  0  0  0  0  0
    0.0010   -1.9590    6.3970 H   0  0  0  0  0  0  0  0  0  0  0  0
    0.4430   -1.2020    7.9270 H   0  0  0  0  0  0  0  0  0  0  0  0
   -2.8990    1.1800    9.3450 H   0  0  0  0  0  0  0  0  0  0  0  0
   -4.3760    1.4460   10.2830 H   0  0  0  0  0  0  0  0  0  0  0  0
   -4.3900    1.7640    8.5350 H   0  0  0  0  0  0  0  0  0  0  0  0
    1.4120   -0.8630    4.5020 H   0  0  0  0  0  0  0  0  0  0  0  0
    2.3180    0.5450    5.0510 H   0  0  0  0  0  0  0  0  0  0  0  0
   -6.6050    1.1110    6.1470 H   0  0  0  0  0  0  0  0  0  0  0  0
   -6.5740   -0.3820    5.1580 H   0  0  0  0  0  0  0  0  0  0  0  0
   -6.3120   -0.4560    6.8970 H   0  0  0  0  0  0  0  0  0  0  0  0
    8.2050   -5.8150    4.8210 H   0  0  0  0  0  0  0  0  0  0  0  0
    6.9390   -1.9220    1.0910 H   0  0  0  0  0  0  0  0  0  0  0  0
    9.5240   -5.7760    2.8070 H   0  0  0  0  0  0  0  0  0  0  0  0
    3.6090   -3.4380    7.4580 H   0  0  0  0  0  0  0  0  0  0  0  0
    8.2900   -1.9000   -0.9460 H   0  0  0  0  0  0  0  0  0  0  0  0
   10.1080   -2.8630   -2.3040 H   0  0  0  0  0  0  0  0  0  0  0  0
   11.3900   -4.8140   -1.4660 H   0  0  0  0  0  0  0  0  0  0  0  0
   10.8680   -5.7860    0.7370 H   0  0  0  0  0  0  0  0  0  0  0  0
    5.9930   -0.8080    2.7250 H   0  0  0  0  0  0  0  0  0  0  0  0
    4.6220   -1.8810    2.3710 H   0  0  0  0  0  0  0  0  0  0  0  0
    3.9430   -0.1150    3.8570 H   0  0  0  0  0  0  0  0  0  0  0  0
    5.2760   -0.4010    4.9680 H   0  0  0  0  0  0  0  0  0  0  0  0
    3.0850   -2.4550    4.3620 H   0  0  0  0  0  0  0  0  0  0  0  0
    6.3580   -6.2970    7.7830 H   0  0  0  0  0  0  0  0  0  0  0  0
    2.2590   -2.0240    6.6570 H   0  0  0  0  0  0  0  0  0  0  0  0
    3.3730   -0.6700    6.8350 H   0  0  0  0  0  0  0  0  0  0  0  0
    3.9780    0.7590   -0.1400 H   0  0  0  0  0  0  0  0  0  0  0  0
    3.3130    5.5910   -2.6410 H   0  0  0  0  0  0  0  0  0  0  0  0
    5.0960    3.4160    0.3320 H   0  0  0  0  0  0  0  0  0  0  0  0
    2.1510   -2.6120   -2.7710 H   0  0  0  0  0  0  0  0  0  0  0  0
    3.3890   -1.3160   -1.1450 H   0  0  0  0  0  0  0  0  0  0  0  0
    0.9160    2.0850   -5.4580 H   0  0  0  0  0  0  0  0  0  0  0  0
   -0.5780    0.7240   -6.7620 H   0  0  0  0  0  0  0  0  0  0  0  0
    0.6050   -2.7540   -4.5700 H   0  0  0  0  0  0  0  0  0  0  0  0
    1.4000    4.6470    0.6710 H   0  0  0  0  0  0  0  0  0  0  0  0
    1.3160    2.8650    0.3530 H   0  0  0  0  0  0  0  0  0  0  0  0
    2.4340    4.3640   -4.1960 H   0  0  0  0  0  0  0  0  0  0  0  0
    4.3420    7.0550   -0.7130 H   0  0  0  0  0  0  0  0  0  0  0  0
    5.4690    6.0990    0.2620 H   0  0  0  0  0  0  0  0  0  0  0  0
    3.8250    6.4230    0.8580 H   0  0  0  0  0  0  0  0  0  0  0  0
   -3.2500   -1.8250   -3.0080 H   0  0  0  0  0  0  0  0  0  0  0  0
   -6.6950    1.5730   -9.4970 H   0  0  0  0  0  0  0  0  0  0  0  0
   -2.3470    0.3410   -2.5740 H   0  0  0  0  0  0  0  0  0  0  0  0
   -3.6270    4.1620   -6.9910 H   0  0  0  0  0  0  0  0  0  0  0  0
   -5.9670   -2.4170   -6.6770 H   0  0  0  0  0  0  0  0  0  0  0  0
   -5.0270   -1.8130   -4.7050 H   0  0  0  0  0  0  0  0  0  0  0  0
   -5.0900    2.8060   -8.2540 H   0  0  0  0  0  0  0  0  0  0  0  0
   -8.4050    0.3600  -10.7870 H   0  0  0  0  0  0  0  0  0  0  0  0
   -9.6750   -1.7050  -11.2170 H   0  0  0  0  0  0  0  0  0  0  0  0
   -7.5940   -3.6700   -7.9980 H   0  0  0  0  0  0  0  0  0  0  0  0
   -2.2370    5.6420   -5.7540 H   0  0  0  0  0  0  0  0  0  0  0  0
   -0.7970    6.1390   -3.8440 H   0  0  0  0  0  0  0  0  0  0  0  0
   -1.2440    2.1340   -2.4150 H   0  0  0  0  0  0  0  0  0  0  0  0
   -9.1350   -4.9580   -9.3550 H   0  0  0  0  0  0  0  0  0  0  0  0
   -0.0580    5.3680   -1.8750 H   0  0  0  0  0  0  0  0  0  0  0  0
   -3.5760   -2.5490   -6.8840 H   0  0  0  0  0  0  0  0  0  0  0  0
   -3.7950   -3.5280   -5.4420 H   0  0  0  0  0  0  0  0  0  0  0  0
   -1.5810   -2.7950   -4.5980 H   0  0  0  0  0  0  0  0  0  0  0  0
   -1.5340   -3.7000   -6.1020 H   0  0  0  0  0  0  0  0  0  0  0  0
  1  2  2  0
  1  4  1  0
  1 10  1  0
  2  5  1  0
  2 13  1  0
  3  6  2  0
  3  7  1  0
  3104  1  0
  4  8  2  0
  4 19  1  0
  5  9  2  0
  5 27  1  0
  6  8  1  0
  6 21  1  0
  7  9  1  0
  7 22  1  0
  7105  1  6
  8  9  1  0
 10 11  2  0
 10 14  1  0
 11 12  1  0
 11 17  1  0
 12 13  2  0
 12106  1  0
 13107  1  0
 14 15  2  0
 14 18  1  0
 15 16  1  0
 15 25  1  0
 16 17  2  0
 16108  1  0
 17109  1  0
 18 19  2  0
 18110  1  0
 19 20  1  0
 20 21  1  0
 20 26  1  0
 20111  1  1
 21112  1  0
 21113  1  0
 22 23  2  0
 22 24  1  0
 24114  1  0
 24115  1  0
 24116  1  0
 25 70  1  0
 26 50  1  0
 26117  1  0
 26118  1  0
 27119  1  0
 27120  1  0
 27121  1  0
 28 29  1  0
 28 32  2  0
 28 38  1  0
 29 33  2  0
 29 41  1  0
 30 31  2  0
 30 34  1  0
 30 42  1  0
 31 35  1  0
 31 45  1  0
 32 36  1  0
 32 46  1  0
 33 37  1  0
 33122  1  0
 34 36  2  0
 34123  1  0
 35 37  2  0
 35124  1  0
 36 37  1  0
 38 39  2  0
 38 48  1  0
 39 40  1  0
 39125  1  0
 40 41  2  0
 41 49  1  0
 42 43  2  0
 42126  1  0
 43 44  1  0
 43127  1  0
 44 45  2  0
 44128  1  0
 45129  1  0
 46 47  1  0
 46130  1  0
 46131  1  0
 47 48  1  0
 47132  1  0
 47133  1  0
 48 50  1  0
 48134  1  6
 49135  1  0
 50136  1  0
 50137  1  0
 51 52  2  0
 51 54  1  0
 51 60  1  0
 52 55  1  0
 52 63  1  0
 53 56  2  0
 53 57  1  0
 53 73  1  0
 54 58  2  0
 54 72  1  0
 55 59  2  0
 55138  1  0
 56 58  1  0
 56139  1  0
 57 59  1  0
 57 68  1  0
 57140  1  1
 58 59  1  0
 60 61  2  0
 60 64  1  0
 61 62  1  0
 61 67  1  0
 62 63  2  0
 62141  1  0
 63142  1  0
 64 65  2  0
 64143  1  0
 65 66  1  0
 65144  1  0
 66 67  2  0
 66 71  1  0
 67145  1  0
 68 69  2  0
 68 70  1  0
 70146  1  0
 70147  1  0
 71103  1  0
 72148  1  0
 73149  1  0
 73150  1  0
 73151  1  0
 74 75  1  0
 74 78  2  0
 74 91  1  0
 75 82  2  0
 75 94  1  0
 76 79  2  0
 76 81  1  0
 76 95  1  0
 77 80  2  0
 77 83  1  0
 77152  1  0
 78 86  1  0
 78153  1  0
 79 85  1  0
 79 98  1  0
 80 85  1  0
 80154  1  0
 81 87  2  0
 81155  1  0
 82 88  1  0
 82156  1  0
 83 89  1  0
 83102  1  0
 83157  1  1
 84 86  2  0
 84 87  1  0
 84158  1  0
 85 90  2  0
 86 88  1  0
 87 90  1  0
 88 89  2  0
 89 90  1  0
 91 92  2  0
 91159  1  0
 92 93  1  0
 92160  1  0
 93 94  2  0
 93 99  1  0
 94161  1  0
 95 96  2  0
 95162  1  0
 96 97  1  0
 96163  1  0
 97 98  2  0
 97101  1  0
 98164  1  0
 99100  2  0
 99165  1  0
101166  1  0
102103  1  0
102167  1  0
102168  1  0
103169  1  0
103170  1  0
M  END
