
     RDKit          3D

184205  0  0  0  0  0  0  0  0999 V2000
   -4.3300   -2.6040   -1.8420 C   0  0  0  0  0  0  0  0  0  0  0  0
   -2.9540   -2.8120   -1.6880 C   0  0  0  0  0  0  0  0  0  0  0  0
   -3.4680   -0.7370   -6.4110 C   0  0  0  0  0  0  0  0  0  0  0  0
   -2.1570   -1.1370   -6.3090 C   0  0  0  0  0  0  0  0  0  0  0  0
   -4.7800   -1.8270   -2.9500 C   0  0  0  0  0  0  0  0  0  0  0  0
   -2.0740   -2.3580   -2.7000 C   0  0  0  0  0  0  0  0  0  0  0  0
   -4.3740   -0.9750   -5.3610 C   0  0  0  0  0  0  0  0  0  0  0  0
   -1.7280   -1.7570   -5.1370 C   0  0  0  0  0  0  0  0  0  0  0  0
   -3.9410   -1.5590   -4.1000 C   0  0  0  0  0  0  0  0  0  0  0  0
   -2.5600   -1.9100   -3.9790 C   0  0  0  0  0  0  0  0  0  0  0  0
   -5.1990   -3.0530   -0.8110 C   0  0  0  0  0  0  0  0  0  0  0  0
   -4.7200   -3.8020    0.2720 C   0  0  0  0  0  0  0  0  0  0  0  0
   -3.3570   -3.9530    0.4450 C   0  0  0  0  0  0  0  0  0  0  0  0
   -2.4770   -3.3910   -0.4810 C   0  0  0  0  0  0  0  0  0  0  0  0
   -6.1880   -1.2530   -2.8340 C   0  0  0  0  0  0  0  0  0  0  0  0
   -6.8100   -1.2430   -1.4250 C   0  0  1  0  0  0  0  0  0  0  0  0
   -6.6500   -2.6360   -0.8100 C   0  0  0  0  0  0  0  0  0  0  0  0
   -0.5910   -2.2710   -2.3320 C   0  0  0  0  0  0  0  0  0  0  0  0
   -0.3900   -2.1110   -0.8140 C   0  0  1  0  0  0  0  0  0  0  0  0
   -1.0020   -3.3540   -0.1500 C   0  0  0  0  0  0  0  0  0  0  0  0
   -0.4160   -2.4350   -5.2760 C   0  0  0  0  0  0  0  0  0  0  0  0
    0.4530   -2.0710   -6.0620 O   0  0  0  0  0  0  0  0  0  0  0  0
    1.0800   -1.9220   -0.4020 C   0  0  0  0  0  0  0  0  0  0  0  0
    1.7850   -0.6950   -0.9990 C   0  0  0  0  0  0  0  0  0  0  0  0
   -6.3560   -0.0510   -0.5210 C   0  0  0  0  0  0  0  0  0  0  0  0
   -4.9330   -0.1050    0.0410 C   0  0  0  0  0  0  0  0  0  0  0  0
    1.1220    0.6540   -0.6750 C   0  0  0  0  0  0  0  0  0  0  0  0
   -5.7960   -0.5740   -5.6890 C   0  0  0  0  0  0  0  0  0  0  0  0
    0.8890   -4.0210    4.5680 C   0  0  0  0  0  0  0  0  0  0  0  0
    0.0740   -5.1760    4.7620 C   0  0  0  0  0  0  0  0  0  0  0  0
    4.3020   -6.9660    5.5090 C   0  0  0  0  0  0  0  0  0  0  0  0
    2.2830   -4.1270    4.6960 C   0  0  0  0  0  0  0  0  0  0  0  0
    0.6460   -6.4360    5.0950 C   0  0  0  0  0  0  0  0  0  0  0  0
    4.2080   -5.6900    5.1170 C   0  0  0  0  0  0  0  0  0  0  0  0
    2.9400   -7.6320    5.6100 C   0  0  0  0  0  0  0  0  0  0  0  0
    2.8020   -5.3710    4.9980 C   0  0  0  0  0  0  0  0  0  0  0  0
    2.0260   -6.5050    5.2230 C   0  0  0  0  0  0  0  0  0  0  0  0
    0.3260   -2.7590    4.2690 C   0  0  0  0  0  0  0  0  0  0  0  0
   -1.0760   -2.6520    4.1590 C   0  0  0  0  0  0  0  0  0  0  0  0
   -1.9000   -3.7950    4.3550 C   0  0  0  0  0  0  0  0  0  0  0  0
   -1.3240   -5.0560    4.6490 C   0  0  0  0  0  0  0  0  0  0  0  0
    1.1550   -1.6150    4.1180 C   0  0  0  0  0  0  0  0  0  0  0  0
    0.5690   -0.3420    3.8250 C   0  0  0  0  0  0  0  0  0  0  0  0
   -0.8460   -0.2570    3.6770 C   0  0  0  0  0  0  0  0  0  0  0  0
   -1.6610   -1.3980    3.8850 C   0  0  0  0  0  0  0  0  0  0  0  0
    2.5610   -1.7530    4.2800 C   0  0  0  0  0  0  0  0  0  0  0  0
    3.1350   -3.0170    4.5670 C   0  0  0  0  0  0  0  0  0  0  0  0
   -3.3050   -3.6820    4.2900 C   0  0  0  0  0  0  0  0  0  0  0  0
   -4.1080   -4.8140    4.4780 C   0  0  0  0  0  0  0  0  0  0  0  0
   -3.5360   -6.0560    4.7450 C   0  0  0  0  0  0  0  0  0  0  0  0
   -2.1480   -6.1900    4.8460 C   0  0  0  0  0  0  0  0  0  0  0  0
   -3.0690   -1.3010    3.8710 C   0  0  0  0  0  0  0  0  0  0  0  0
   -3.8760   -2.4300    4.0570 C   0  0  0  0  0  0  0  0  0  0  0  0
   -1.5660   -7.4260    5.1550 C   0  0  0  0  0  0  0  0  0  0  0  0
   -0.1830   -7.5490    5.2830 C   0  0  0  0  0  0  0  0  0  0  0  0
    1.3810    0.8260    3.6850 C   0  0  0  0  0  0  0  0  0  0  0  0
    0.7300    2.0790    3.4410 C   0  0  0  0  0  0  0  0  0  0  0  0
   -0.6510    2.1210    3.2140 C   0  0  0  0  0  0  0  0  0  0  0  0
   -1.4330    0.9730    3.3120 C   0  0  0  0  0  0  0  0  0  0  0  0
    3.3440   -0.6090    4.1420 C   0  0  0  0  0  0  0  0  0  0  0  0
    2.7800    0.6300    3.8190 C   0  0  0  0  0  0  0  0  0  0  0  0
    4.6220   -3.2040    4.8790 C   0  0  0  0  0  0  0  0  0  0  0  0
    5.1920   -4.6390    4.7650 C   0  0  0  0  0  0  0  0  0  0  0  0
   -2.9150    1.0610    2.9600 C   0  0  2  0  0  0  0  0  0  0  0  0
   -3.7140    0.0620    3.8090 C   0  0  0  0  0  0  0  0  0  0  0  0
    3.7970    1.6590    3.5150 C   0  0  0  0  0  0  0  0  0  0  0  0
    4.2850    2.3250    4.4180 O   0  0  0  0  0  0  0  0  0  0  0  0
    4.2430    1.7540    2.0680 C   0  0  0  0  0  0  0  0  0  0  0  0
    5.5970    1.1050    1.8620 C   0  0  0  0  0  0  0  0  0  0  0  0
   -3.0910    0.8520    1.4390 C   0  0  0  0  0  0  0  0  0  0  0  0
   -4.5300    1.0790    0.9200 C   0  0  0  0  0  0  0  0  0  0  0  0
    1.4390    3.4100    3.4360 C   0  0  0  0  0  0  0  0  0  0  0  0
    1.8890    4.3330   -3.2720 C   0  0  0  0  0  0  0  0  0  0  0  0
    2.8590    4.9490   -4.1110 C   0  0  0  0  0  0  0  0  0  0  0  0
    4.7350    5.8820    0.0730 C   0  0  0  0  0  0  0  0  0  0  0  0
    2.1670    4.2140   -1.8840 C   0  0  0  0  0  0  0  0  0  0  0  0
    3.9970    5.5560   -3.5350 C   0  0  0  0  0  0  0  0  0  0  0  0
    3.6460    5.0940    0.0440 C   0  0  0  0  0  0  0  0  0  0  0  0
    5.1820    6.2930   -1.3230 C   0  0  1  0  0  0  0  0  0  0  0  0
    3.2400    4.9120   -1.3410 C   0  0  0  0  0  0  0  0  0  0  0  0
    4.1310    5.6060   -2.1600 C   0  0  0  0  0  0  0  0  0  0  0  0
    0.6490    3.8670   -3.8080 C   0  0  0  0  0  0  0  0  0  0  0  0
    0.4280    3.9100   -5.2080 C   0  0  0  0  0  0  0  0  0  0  0  0
    1.4540    4.4270   -6.0420 C   0  0  0  0  0  0  0  0  0  0  0  0
    2.6300    4.9510   -5.4920 C   0  0  0  0  0  0  0  0  0  0  0  0
   -0.4030    3.4210   -2.9450 C   0  0  0  0  0  0  0  0  0  0  0  0
   -1.6840    3.0990   -3.4610 C   0  0  0  0  0  0  0  0  0  0  0  0
   -1.8850    3.0850   -4.8480 C   0  0  0  0  0  0  0  0  0  0  0  0
   -0.8230    3.4640   -5.6900 C   0  0  0  0  0  0  0  0  0  0  0  0
    1.3360    3.2340   -1.0770 C   0  0  1  0  0  0  0  0  0  0  0  0
   -0.1410    3.4280   -1.4440 C   0  0  0  0  0  0  0  0  0  0  0  0
   -2.8300    2.8700   -2.5220 C   0  0  0  0  0  0  0  0  0  0  0  0
   -3.9510    2.5070   -2.8560 O   0  0  0  0  0  0  0  0  0  0  0  0
    1.3780    4.5110   -7.5260 C   0  0  0  0  0  0  0  0  0  0  0  0
    0.3450    4.4900   -8.1810 O   0  0  0  0  0  0  0  0  0  0  0  0
    4.9820    6.1300   -4.2870 O   0  0  0  0  0  0  0  0  0  0  0  0
    5.4220    6.3610    1.3150 C   0  0  0  0  0  0  0  0  0  0  0  0
    6.9030    5.9900    1.4190 C   0  0  0  0  0  0  0  0  0  0  0  0
    7.1450    4.4890    1.4400 C   0  0  0  0  0  0  0  0  0  0  0  0
    1.8850    1.8040   -1.3460 C   0  0  0  0  0  0  0  0  0  0  0  0
    5.1870    7.8080   -1.5150 C   0  0  0  0  0  0  0  0  0  0  0  0
   -3.2060    2.7660   -5.4930 C   0  0  0  0  0  0  0  0  0  0  0  0
   -3.7990   -0.2710   -7.3360 H   0  0  0  0  0  0  0  0  0  0  0  0
   -1.4930   -1.0220   -7.1620 H   0  0  0  0  0  0  0  0  0  0  0  0
   -5.4020   -4.1710    1.0340 H   0  0  0  0  0  0  0  0  0  0  0  0
   -2.9780   -4.4480    1.3350 H   0  0  0  0  0  0  0  0  0  0  0  0
   -6.8470   -1.8520   -3.4770 H   0  0  0  0  0  0  0  0  0  0  0  0
   -6.1860   -0.2150   -3.1780 H   0  0  0  0  0  0  0  0  0  0  0  0
   -7.8890   -1.0760   -1.5700 H   0  0  0  0  0  0  0  0  0  0  0  0
   -7.2250   -3.3750   -1.3840 H   0  0  0  0  0  0  0  0  0  0  0  0
   -7.0550   -2.6280    0.2110 H   0  0  0  0  0  0  0  0  0  0  0  0
   -0.0720   -3.1760   -2.6610 H   0  0  0  0  0  0  0  0  0  0  0  0
   -0.1630   -1.4000   -2.8330 H   0  0  0  0  0  0  0  0  0  0  0  0
   -0.9510   -1.2290   -0.4710 H   0  0  0  0  0  0  0  0  0  0  0  0
   -0.5250   -4.2770   -0.4960 H   0  0  0  0  0  0  0  0  0  0  0  0
   -0.8640   -3.2840    0.9340 H   0  0  0  0  0  0  0  0  0  0  0  0
   -0.2780   -3.3550   -4.6910 H   0  0  0  0  0  0  0  0  0  0  0  0
    1.6530   -2.8140   -0.6810 H   0  0  0  0  0  0  0  0  0  0  0  0
    1.1310   -1.8490    0.6940 H   0  0  0  0  0  0  0  0  0  0  0  0
    1.8610   -0.8110   -2.0850 H   0  0  0  0  0  0  0  0  0  0  0  0
    2.8140   -0.6820   -0.6240 H   0  0  0  0  0  0  0  0  0  0  0  0
   -6.4810    0.8840   -1.0850 H   0  0  0  0  0  0  0  0  0  0  0  0
   -7.0550    0.0090    0.3240 H   0  0  0  0  0  0  0  0  0  0  0  0
   -4.8370   -0.9940    0.6660 H   0  0  0  0  0  0  0  0  0  0  0  0
   -4.2140   -0.1580   -0.7780 H   0  0  0  0  0  0  0  0  0  0  0  0
    0.0900    0.6440   -1.0370 H   0  0  0  0  0  0  0  0  0  0  0  0
    1.0930    0.8040    0.4100 H   0  0  0  0  0  0  0  0  0  0  0  0
   -6.0730    0.3370   -5.1540 H   0  0  0  0  0  0  0  0  0  0  0  0
   -6.4890   -1.3930   -5.4950 H   0  0  0  0  0  0  0  0  0  0  0  0
   -5.9150   -0.3460   -6.7550 H   0  0  0  0  0  0  0  0  0  0  0  0
    5.2300   -7.4990    5.6680 H   0  0  0  0  0  0  0  0  0  0  0  0
    2.8680   -8.4680    4.9080 H   0  0  0  0  0  0  0  0  0  0  0  0
    2.7500   -7.9650    6.6350 H   0  0  0  0  0  0  0  0  0  0  0  0
   -5.1910   -4.7380    4.4250 H   0  0  0  0  0  0  0  0  0  0  0  0
   -4.1850   -6.9170    4.8910 H   0  0  0  0  0  0  0  0  0  0  0  0
   -4.9590   -2.3200    4.0510 H   0  0  0  0  0  0  0  0  0  0  0  0
   -2.1880   -8.3060    5.3110 H   0  0  0  0  0  0  0  0  0  0  0  0
    0.2350   -8.5220    5.5280 H   0  0  0  0  0  0  0  0  0  0  0  0
   -1.1330    3.0680    2.9740 H   0  0  0  0  0  0  0  0  0  0  0  0
    4.4250   -0.6530    4.2600 H   0  0  0  0  0  0  0  0  0  0  0  0
    4.7870   -2.8370    5.9010 H   0  0  0  0  0  0  0  0  0  0  0  0
    5.2290   -2.5850    4.2070 H   0  0  0  0  0  0  0  0  0  0  0  0
    5.4930   -4.7990    3.7210 H   0  0  0  0  0  0  0  0  0  0  0  0
    6.0990   -4.7240    5.3760 H   0  0  0  0  0  0  0  0  0  0  0  0
   -3.2790    2.0660    3.2070 H   0  0  0  0  0  0  0  0  0  0  0  0
   -4.7500   -0.0150    3.4660 H   0  0  0  0  0  0  0  0  0  0  0  0
   -3.7590    0.4380    4.8400 H   0  0  0  0  0  0  0  0  0  0  0  0
    3.4990    1.2830    1.4180 H   0  0  0  0  0  0  0  0  0  0  0  0
    4.2840    2.8130    1.7980 H   0  0  0  0  0  0  0  0  0  0  0  0
    5.9030    1.1830    0.8140 H   0  0  0  0  0  0  0  0  0  0  0  0
    5.5810    0.0470    2.1340 H   0  0  0  0  0  0  0  0  0  0  0  0
    6.3630    1.5890    2.4780 H   0  0  0  0  0  0  0  0  0  0  0  0
   -2.7440   -0.1560    1.1790 H   0  0  0  0  0  0  0  0  0  0  0  0
   -2.4270    1.5330    0.8930 H   0  0  0  0  0  0  0  0  0  0  0  0
   -5.2450    1.2030    1.7380 H   0  0  0  0  0  0  0  0  0  0  0  0
   -4.5600    2.0020    0.3310 H   0  0  0  0  0  0  0  0  0  0  0  0
    2.0020    3.5510    4.3610 H   0  0  0  0  0  0  0  0  0  0  0  0
    0.7290    4.2440    3.3870 H   0  0  0  0  0  0  0  0  0  0  0  0
    2.0880    3.4970    2.5640 H   0  0  0  0  0  0  0  0  0  0  0  0
    3.1250    4.6960    0.8940 H   0  0  0  0  0  0  0  0  0  0  0  0
    6.1670    5.8690   -1.5470 H   0  0  0  0  0  0  0  0  0  0  0  0
    3.3580    5.4210   -6.1520 H   0  0  0  0  0  0  0  0  0  0  0  0
   -1.0190    3.4550   -6.7600 H   0  0  0  0  0  0  0  0  0  0  0  0
    1.4310    3.4360   -0.0040 H   0  0  0  0  0  0  0  0  0  0  0  0
   -0.4820    4.3980   -1.0630 H   0  0  0  0  0  0  0  0  0  0  0  0
   -0.7220    2.6560   -0.9320 H   0  0  0  0  0  0  0  0  0  0  0  0
   -2.6540    3.0910   -1.4590 H   0  0  0  0  0  0  0  0  0  0  0  0
    2.3510    4.6270   -8.0390 H   0  0  0  0  0  0  0  0  0  0  0  0
    5.1980    5.5110   -5.0050 H   0  0  0  0  0  0  0  0  0  0  0  0
    5.3290    7.4540    1.3680 H   0  0  0  0  0  0  0  0  0  0  0  0
    4.9000    5.9740    2.2030 H   0  0  0  0  0  0  0  0  0  0  0  0
    7.4690    6.4470    0.5990 H   0  0  0  0  0  0  0  0  0  0  0  0
    7.3000    6.4180    2.3460 H   0  0  0  0  0  0  0  0  0  0  0  0
    8.2040    4.2800    1.6160 H   0  0  0  0  0  0  0  0  0  0  0  0
    6.5700    4.0180    2.2400 H   0  0  0  0  0  0  0  0  0  0  0  0
    6.8660    4.0270    0.4900 H   0  0  0  0  0  0  0  0  0  0  0  0
    1.9080    1.6040   -2.4270 H   0  0  0  0  0  0  0  0  0  0  0  0
    2.9330    1.7660   -1.0200 H   0  0  0  0  0  0  0  0  0  0  0  0
    4.2180    8.2530   -1.2650 H   0  0  0  0  0  0  0  0  0  0  0  0
    5.4170    8.0820   -2.5490 H   0  0  0  0  0  0  0  0  0  0  0  0
    5.9450    8.2780   -0.8800 H   0  0  0  0  0  0  0  0  0  0  0  0
   -3.9200    3.5800   -5.3190 H   0  0  0  0  0  0  0  0  0  0  0  0
   -3.6090    1.8280   -5.1050 H   0  0  0  0  0  0  0  0  0  0  0  0
   -3.1080    2.6340   -6.5770 H   0  0  0  0  0  0  0  0  0  0  0  0
  1  2  1  0
  1  5  2  0
  1 11  1  0
  2  6  2  0
  2 14  1  0
  3  4  2  0
  3  7  1  0
  3103  1  0
  4  8  1  0
  4104  1  0
  5  9  1  0
  5 15  1  0
  6 10  1  0
  6 18  1  0
  7  9  2  0
  7 28  1  0
  8 10  2  0
  8 21  1  0
  9 10  1  0
 11 12  2  0
 11 17  1  0
 12 13  1  0
 12105  1  0
 13 14  2  0
 13106  1  0
 14 20  1  0
 15 16  1  0
 15107  1  0
 15108  1  0
 16 17  1  0
 16 25  1  0
 16109  1  6
 17110  1  0
 17111  1  0
 18 19  1  0
 18112  1  0
 18113  1  0
 19 20  1  0
 19 23  1  0
 19114  1  1
 20115  1  0
 20116  1  0
 21 22  2  0
 21117  1  0
 23 24  1  0
 23118  1  0
 23119  1  0
 24 27  1  0
 24120  1  0
 24121  1  0
 25 26  1  0
 25122  1  0
 25123  1  0
 26 71  1  0
 26124  1  0
 26125  1  0
 27100  1  0
 27126  1  0
 27127  1  0
 28128  1  0
 28129  1  0
 28130  1  0
 29 30  2  0
 29 32  1  0
 29 38  1  0
 30 33  1  0
 30 41  1  0
 31 34  2  0
 31 35  1  0
 31131  1  0
 32 36  2  0
 32 47  1  0
 33 37  2  0
 33 55  1  0
 34 36  1  0
 34 63  1  0
 35 37  1  0
 35132  1  0
 35133  1  0
 36 37  1  0
 38 39  2  0
 38 42  1  0
 39 40  1  0
 39 45  1  0
 40 41  2  0
 40 48  1  0
 41 51  1  0
 42 43  2  0
 42 46  1  0
 43 44  1  0
 43 56  1  0
 44 45  2  0
 44 59  1  0
 45 52  1  0
 46 47  2  0
 46 60  1  0
 47 62  1  0
 48 49  2  0
 48 53  1  0
 49 50  1  0
 49134  1  0
 50 51  2  0
 50135  1  0
 51 54  1  0
 52 53  2  0
 52 65  1  0
 53136  1  0
 54 55  2  0
 54137  1  0
 55138  1  0
 56 57  2  0
 56 61  1  0
 57 58  1  0
 57 72  1  0
 58 59  2  0
 58139  1  0
 59 64  1  0
 60 61  2  0
 60140  1  0
 61 66  1  0
 62 63  1  0
 62141  1  0
 62142  1  0
 63143  1  0
 63144  1  0
 64 65  1  0
 64 70  1  0
 64145  1  1
 65146  1  0
 65147  1  0
 66 67  2  0
 66 68  1  0
 68 69  1  0
 68148  1  0
 68149  1  0
 69150  1  0
 69151  1  0
 69152  1  0
 70 71  1  0
 70153  1  0
 70154  1  0
 71155  1  0
 71156  1  0
 72157  1  0
 72158  1  0
 72159  1  0
 73 74  2  0
 73 76  1  0
 73 82  1  0
 74 77  1  0
 74 85  1  0
 75 78  2  0
 75 79  1  0
 75 97  1  0
 76 80  2  0
 76 90  1  0
 77 81  2  0
 77 96  1  0
 78 80  1  0
 78160  1  0
 79 81  1  0
 79101  1  0
 79161  1  6
 80 81  1  0
 82 83  2  0
 82 86  1  0
 83 84  1  0
 83 89  1  0
 84 85  2  0
 84 94  1  0
 85162  1  0
 86 87  2  0
 86 91  1  0
 87 88  1  0
 87 92  1  0
 88 89  2  0
 88102  1  0
 89163  1  0
 90 91  1  0
 90100  1  0
 90164  1  1
 91165  1  0
 91166  1  0
 92 93  2  0
 92167  1  0
 94 95  2  0
 94168  1  0
 96169  1  0
 97 98  1  0
 97170  1  0
 97171  1  0
 98 99  1  0
 98172  1  0
 98173  1  0
 99174  1  0
 99175  1  0
 99176  1  0
100177  1  0
100178  1  0
101179  1  0
101180  1  0
101181  1  0
102182  1  0
102183  1  0
102184  1  0
M  END
