
     RDKit          3D

197214  0  0  0  0  0  0  0  0999 V2000
    6.0460    3.6090    0.8680 C   0  0  0  0  0  0  0  0  0  0  0  0
    6.7880    4.3590    1.8180 C   0  0  0  0  0  0  0  0  0  0  0  0
    8.3510    5.9590   -2.7600 C   0  0  0  0  0  0  0  0  0  0  0  0
    9.0180    6.7820   -1.8560 C   0  0  0  0  0  0  0  0  0  0  0  0
    6.0890    3.9620   -0.5040 C   0  0  0  0  0  0  0  0  0  0  0  0
    7.6400    5.4010    1.3830 C   0  0  0  0  0  0  0  0  0  0  0  0
    7.3690    5.0500   -2.3360 C   0  0  0  0  0  0  0  0  0  0  0  0
    8.7250    6.6500   -0.4810 C   0  0  0  0  0  0  0  0  0  0  0  0
    7.0790    4.8890   -0.9530 C   0  0  0  0  0  0  0  0  0  0  0  0
    7.8170    5.6540   -0.0080 C   0  0  0  0  0  0  0  0  0  0  0  0
    5.1110    3.3480   -1.5220 C   0  0  2  0  0  0  0  0  0  0  0  0
    5.2220    3.9890   -2.9140 C   0  0  0  0  0  0  0  0  0  0  0  0
    6.6590    4.1730   -3.3370 C   0  0  0  0  0  0  0  0  0  0  0  0
    8.4500    6.2200    2.3920 C   0  0  2  0  0  0  0  0  0  0  0  0
    8.6850    7.6250    1.8340 C   0  0  0  0  0  0  0  0  0  0  0  0
    9.4180    7.5700    0.5050 C   0  0  0  0  0  0  0  0  0  0  0  0
    5.1950    2.4600    1.3740 C   0  0  0  0  0  0  0  0  0  0  0  0
    5.7630    1.6950    2.5720 C   0  0  0  0  0  0  0  0  0  0  0  0
    6.7750    2.4710    3.4030 C   0  0  0  0  0  0  0  0  0  0  0  0
    6.6220    3.9920    3.2960 C   0  0  2  0  0  0  0  0  0  0  0  0
    8.6880    6.0720   -4.0840 O   0  0  0  0  0  0  0  0  0  0  0  0
    9.7510    5.4740    2.7720 C   0  0  0  0  0  0  0  0  0  0  0  0
   10.5630    6.1870    3.8450 C   0  0  0  0  0  0  0  0  0  0  0  0
    3.6270    3.4960   -1.1360 C   0  0  0  0  0  0  0  0  0  0  0  0
    5.3100    4.5920    3.8440 C   0  0  0  0  0  0  0  0  0  0  0  0
   10.0200    7.7990   -2.3440 C   0  0  0  0  0  0  0  0  0  0  0  0
    1.1070    4.2640    5.1170 C   0  0  0  0  0  0  0  0  0  0  0  0
    0.8270    5.1790    6.1370 C   0  0  0  0  0  0  0  0  0  0  0  0
    1.8710    5.7460    6.8690 C   0  0  0  0  0  0  0  0  0  0  0  0
    3.1970    5.4190    6.5830 C   0  0  0  0  0  0  0  0  0  0  0  0
    3.4920    4.4930    5.5770 C   0  0  0  0  0  0  0  0  0  0  0  0
    2.4350    3.9140    4.8560 C   0  0  0  0  0  0  0  0  0  0  0  0
   -0.0160    3.7040    4.3140 C   0  0  0  0  0  0  0  0  0  0  0  0
   -1.1440    3.6500    4.8000 O   0  0  0  0  0  0  0  0  0  0  0  0
    0.2590    3.2350    2.8960 C   0  0  0  0  0  0  0  0  0  0  0  0
    0.4110    1.7160    2.8380 C   0  0  0  0  0  0  0  0  0  0  0  0
    0.8480    1.2600    1.4420 C   0  0  0  0  0  0  0  0  0  0  0  0
    4.9150    4.1070    5.2450 C   0  0  0  0  0  0  0  0  0  0  0  0
    3.3920   -5.1080   -1.9210 C   0  0  0  0  0  0  0  0  0  0  0  0
    3.7270   -3.7660   -1.9860 C   0  0  0  0  0  0  0  0  0  0  0  0
   -0.9710   -3.9150   -0.0970 C   0  0  0  0  0  0  0  0  0  0  0  0
   -0.5650   -2.5760   -0.0500 C   0  0  0  0  0  0  0  0  0  0  0  0
    2.1520   -5.5160   -1.4260 C   0  0  0  0  0  0  0  0  0  0  0  0
    2.8800   -2.7890   -1.4640 C   0  0  0  0  0  0  0  0  0  0  0  0
   -0.0670   -4.9090   -0.5070 C   0  0  0  0  0  0  0  0  0  0  0  0
    0.7580   -2.1980   -0.3470 C   0  0  0  0  0  0  0  0  0  0  0  0
    1.2320   -4.5450   -0.9510 C   0  0  0  0  0  0  0  0  0  0  0  0
    1.6290   -3.1670   -0.9100 C   0  0  0  0  0  0  0  0  0  0  0  0
    1.8350   -7.0030   -1.3910 C   0  0  1  0  0  0  0  0  0  0  0  0
    0.6960   -7.3080   -0.4020 C   0  0  1  0  0  0  0  0  0  0  0  0
   -0.5200   -6.3660   -0.5470 C   0  0  2  0  0  0  0  0  0  0  0  0
    3.2590   -1.3280   -1.5650 C   0  0  2  0  0  0  0  0  0  0  0  0
    2.7610   -0.6090   -0.3170 C   0  0  0  0  0  0  0  0  0  0  0  0
    1.2460   -0.7680   -0.0840 C   0  0  2  0  0  0  0  0  0  0  0  0
    1.6500   -7.5740   -2.8030 C   0  0  0  0  0  0  0  0  0  0  0  0
    0.8840   -7.0830   -3.6310 O   0  0  0  0  0  0  0  0  0  0  0  0
    2.4340   -8.8180   -3.1430 C   0  0  0  0  0  0  0  0  0  0  0  0
   -1.5000   -1.6270    0.2780 O   0  0  0  0  0  0  0  0  0  0  0  0
    4.3070   -6.0410   -2.3340 O   0  0  0  0  0  0  0  0  0  0  0  0
    4.9030   -3.4170   -2.5930 O   0  0  0  0  0  0  0  0  0  0  0  0
   -2.2110   -4.3240    0.3410 O   0  0  0  0  0  0  0  0  0  0  0  0
   -1.4210   -6.6180   -1.7610 C   0  0  0  0  0  0  0  0  0  0  0  0
    0.9440   -0.2690    1.3630 C   0  0  0  0  0  0  0  0  0  0  0  0
    0.3170   -8.7890   -0.3500 C   0  0  0  0  0  0  0  0  0  0  0  0
    2.7360   -0.7000   -2.8580 C   0  0  0  0  0  0  0  0  0  0  0  0
   -9.1810   -1.4510   -0.9910 C   0  0  0  0  0  0  0  0  0  0  0  0
   -8.9060   -0.2400   -0.2720 C   0  0  0  0  0  0  0  0  0  0  0  0
  -12.4720    1.1220   -2.9690 C   0  0  0  0  0  0  0  0  0  0  0  0
  -10.2280   -1.4770   -1.9340 C   0  0  0  0  0  0  0  0  0  0  0  0
   -9.6300    0.9540   -0.5700 C   0  0  0  0  0  0  0  0  0  0  0  0
  -12.1180   -0.1710   -2.9610 C   0  0  0  0  0  0  0  0  0  0  0  0
  -11.5280    1.9730   -2.1140 C   0  0  1  0  0  0  0  0  0  0  0  0
  -10.9350   -0.3060   -2.1360 C   0  0  0  0  0  0  0  0  0  0  0  0
  -10.6200    0.9090   -1.5400 C   0  0  0  0  0  0  0  0  0  0  0  0
   -8.4180   -2.6270   -0.7830 C   0  0  0  0  0  0  0  0  0  0  0  0
   -7.3830   -2.5990    0.2020 C   0  0  0  0  0  0  0  0  0  0  0  0
   -7.2100   -1.4500    1.0140 C   0  0  0  0  0  0  0  0  0  0  0  0
   -7.9190   -0.2600    0.7350 C   0  0  0  0  0  0  0  0  0  0  0  0
   -8.6740   -3.7980   -1.5670 C   0  0  0  0  0  0  0  0  0  0  0  0
   -7.8200   -4.9030   -1.3260 C   0  0  0  0  0  0  0  0  0  0  0  0
   -6.7900   -4.8600   -0.3910 C   0  0  0  0  0  0  0  0  0  0  0  0
   -6.5330   -3.7200    0.3560 C   0  0  0  0  0  0  0  0  0  0  0  0
   -9.7450   -3.7800   -2.5350 C   0  0  0  0  0  0  0  0  0  0  0  0
  -10.5440   -2.6240   -2.6880 C   0  0  0  0  0  0  0  0  0  0  0  0
  -11.6520   -2.5210   -3.7390 C   0  0  0  0  0  0  0  0  0  0  0  0
  -12.7030   -1.4150   -3.5130 C   0  0  0  0  0  0  0  0  0  0  0  0
   -9.3860    2.2130    0.2220 C   0  0  0  0  0  0  0  0  0  0  0  0
   -7.9630    2.2580    0.7510 C   0  0  0  0  0  0  0  0  0  0  0  0
   -7.6590    0.9970    1.5460 C   0  0  0  0  0  0  0  0  0  0  0  0
   -6.2450   -1.4850    2.1880 C   0  0  0  0  0  0  0  0  0  0  0  0
   -5.7660   -2.8930    2.5270 C   0  0  0  0  0  0  0  0  0  0  0  0
   -5.3160   -3.6350    1.2640 C   0  0  2  0  0  0  0  0  0  0  0  0
   -6.0420   -5.9980   -0.2220 O   0  0  0  0  0  0  0  0  0  0  0  0
   -7.9480   -6.0890   -2.0130 O   0  0  0  0  0  0  0  0  0  0  0  0
   -4.1490   -2.8880    0.5750 C   0  0  0  0  0  0  0  0  0  0  0  0
   -3.3110   -3.7450   -0.3750 C   0  0  0  0  0  0  0  0  0  0  0  0
  -10.7790    2.9830   -2.9820 C   0  0  0  0  0  0  0  0  0  0  0  0
  -13.6650    1.7290   -3.6230 C   0  0  0  0  0  0  0  0  0  0  0  0
   -9.9900   -4.9900   -3.4130 C   0  0  0  0  0  0  0  0  0  0  0  0
    5.3600    2.2840   -1.6220 H   0  0  0  0  0  0  0  0  0  0  0  0
    4.7250    4.9690   -2.9190 H   0  0  0  0  0  0  0  0  0  0  0  0
    4.6980    3.3700   -3.6530 H   0  0  0  0  0  0  0  0  0  0  0  0
    6.6500    4.6270   -4.3330 H   0  0  0  0  0  0  0  0  0  0  0  0
    7.1800    3.2120   -3.4110 H   0  0  0  0  0  0  0  0  0  0  0  0
    7.8470    6.3720    3.2960 H   0  0  0  0  0  0  0  0  0  0  0  0
    7.7170    8.1230    1.6900 H   0  0  0  0  0  0  0  0  0  0  0  0
    9.2420    8.2470    2.5430 H   0  0  0  0  0  0  0  0  0  0  0  0
    9.4500    8.5920    0.1100 H   0  0  0  0  0  0  0  0  0  0  0  0
   10.4520    7.2350    0.6430 H   0  0  0  0  0  0  0  0  0  0  0  0
    4.2120    2.8570    1.6510 H   0  0  0  0  0  0  0  0  0  0  0  0
    5.0330    1.7200    0.5840 H   0  0  0  0  0  0  0  0  0  0  0  0
    6.2450    0.7730    2.2180 H   0  0  0  0  0  0  0  0  0  0  0  0
    4.9290    1.3660    3.2070 H   0  0  0  0  0  0  0  0  0  0  0  0
    7.7800    2.2010    3.0460 H   0  0  0  0  0  0  0  0  0  0  0  0
    6.7450    2.1330    4.4440 H   0  0  0  0  0  0  0  0  0  0  0  0
    7.4340    4.4000    3.9010 H   0  0  0  0  0  0  0  0  0  0  0  0
    8.5960    5.1990   -4.4980 H   0  0  0  0  0  0  0  0  0  0  0  0
    9.5120    4.4710    3.1430 H   0  0  0  0  0  0  0  0  0  0  0  0
   10.3830    5.3110    1.8910 H   0  0  0  0  0  0  0  0  0  0  0  0
    9.9480    6.4020    4.7250 H   0  0  0  0  0  0  0  0  0  0  0  0
   11.4010    5.5590    4.1620 H   0  0  0  0  0  0  0  0  0  0  0  0
   10.9800    7.1270    3.4730 H   0  0  0  0  0  0  0  0  0  0  0  0
    3.3330    2.8650   -0.3000 H   0  0  0  0  0  0  0  0  0  0  0  0
    2.9750    3.2020   -1.9690 H   0  0  0  0  0  0  0  0  0  0  0  0
    3.3870    4.5310   -0.8690 H   0  0  0  0  0  0  0  0  0  0  0  0
    5.4070    5.6870    3.8670 H   0  0  0  0  0  0  0  0  0  0  0  0
    4.4890    4.4090    3.1430 H   0  0  0  0  0  0  0  0  0  0  0  0
    9.5950    8.8050   -2.2740 H   0  0  0  0  0  0  0  0  0  0  0  0
   10.3210    7.6350   -3.3820 H   0  0  0  0  0  0  0  0  0  0  0  0
   10.9410    7.7520   -1.7510 H   0  0  0  0  0  0  0  0  0  0  0  0
   -0.1990    5.4390    6.3810 H   0  0  0  0  0  0  0  0  0  0  0  0
    1.6500    6.4580    7.6630 H   0  0  0  0  0  0  0  0  0  0  0  0
    3.9980    5.8800    7.1590 H   0  0  0  0  0  0  0  0  0  0  0  0
    2.6700    3.1750    4.0940 H   0  0  0  0  0  0  0  0  0  0  0  0
   -0.5810    3.5600    2.2690 H   0  0  0  0  0  0  0  0  0  0  0  0
    1.1430    3.7420    2.4930 H   0  0  0  0  0  0  0  0  0  0  0  0
    1.1410    1.3760    3.5830 H   0  0  0  0  0  0  0  0  0  0  0  0
   -0.5450    1.2480    3.1030 H   0  0  0  0  0  0  0  0  0  0  0  0
    0.1230    1.6180    0.7020 H   0  0  0  0  0  0  0  0  0  0  0  0
    1.8160    1.7100    1.1970 H   0  0  0  0  0  0  0  0  0  0  0  0
    5.6120    4.5130    5.9870 H   0  0  0  0  0  0  0  0  0  0  0  0
    4.9730    3.0160    5.3260 H   0  0  0  0  0  0  0  0  0  0  0  0
    2.7240   -7.5010   -0.9760 H   0  0  0  0  0  0  0  0  0  0  0  0
    1.1110   -7.0890    0.5970 H   0  0  0  0  0  0  0  0  0  0  0  0
   -1.1330   -6.5530    0.3480 H   0  0  0  0  0  0  0  0  0  0  0  0
    4.3530   -1.2310   -1.5590 H   0  0  0  0  0  0  0  0  0  0  0  0
    3.3110   -1.0130    0.5450 H   0  0  0  0  0  0  0  0  0  0  0  0
    3.0210    0.4540   -0.3760 H   0  0  0  0  0  0  0  0  0  0  0  0
    0.7180   -0.1300   -0.8080 H   0  0  0  0  0  0  0  0  0  0  0  0
    2.0980   -9.6530   -2.5260 H   0  0  0  0  0  0  0  0  0  0  0  0
    3.5020   -8.6410   -2.9920 H   0  0  0  0  0  0  0  0  0  0  0  0
    2.2760   -9.0720   -4.1950 H   0  0  0  0  0  0  0  0  0  0  0  0
   -1.2570   -0.7910   -0.1440 H   0  0  0  0  0  0  0  0  0  0  0  0
    5.1790   -5.6090   -2.2540 H   0  0  0  0  0  0  0  0  0  0  0  0
    4.8530   -3.8040   -3.4880 H   0  0  0  0  0  0  0  0  0  0  0  0
   -1.5620   -7.6810   -1.9670 H   0  0  0  0  0  0  0  0  0  0  0  0
   -1.0490   -6.1250   -2.6630 H   0  0  0  0  0  0  0  0  0  0  0  0
   -2.4200   -6.2070   -1.5870 H   0  0  0  0  0  0  0  0  0  0  0  0
    1.7180   -0.6280    2.0550 H   0  0  0  0  0  0  0  0  0  0  0  0
    0.0120   -0.6820    1.7580 H   0  0  0  0  0  0  0  0  0  0  0  0
   -0.4510   -8.9640    0.4110 H   0  0  0  0  0  0  0  0  0  0  0  0
    1.1880   -9.3960   -0.0830 H   0  0  0  0  0  0  0  0  0  0  0  0
   -0.0660   -9.1600   -1.3040 H   0  0  0  0  0  0  0  0  0  0  0  0
    1.6510   -0.7970   -2.9570 H   0  0  0  0  0  0  0  0  0  0  0  0
    3.1870   -1.1820   -3.7330 H   0  0  0  0  0  0  0  0  0  0  0  0
    2.9860    0.3660   -2.8970 H   0  0  0  0  0  0  0  0  0  0  0  0
  -12.0870    2.4660   -1.3090 H   0  0  0  0  0  0  0  0  0  0  0  0
  -11.1700   -2.3650   -4.7120 H   0  0  0  0  0  0  0  0  0  0  0  0
  -12.2120   -3.4610   -3.7840 H   0  0  0  0  0  0  0  0  0  0  0  0
  -13.4410   -1.7880   -2.7900 H   0  0  0  0  0  0  0  0  0  0  0  0
  -13.2430   -1.2270   -4.4480 H   0  0  0  0  0  0  0  0  0  0  0  0
   -9.5540    3.1050   -0.3830 H   0  0  0  0  0  0  0  0  0  0  0  0
  -10.0990    2.2410    1.0550 H   0  0  0  0  0  0  0  0  0  0  0  0
   -7.2570    2.3490   -0.0860 H   0  0  0  0  0  0  0  0  0  0  0  0
   -7.8270    3.1400    1.3840 H   0  0  0  0  0  0  0  0  0  0  0  0
   -6.6110    1.0560    1.8540 H   0  0  0  0  0  0  0  0  0  0  0  0
   -8.2730    0.9600    2.4530 H   0  0  0  0  0  0  0  0  0  0  0  0
   -5.3830   -0.8460    1.9620 H   0  0  0  0  0  0  0  0  0  0  0  0
   -6.7360   -1.0790    3.0790 H   0  0  0  0  0  0  0  0  0  0  0  0
   -4.9470   -2.8400    3.2540 H   0  0  0  0  0  0  0  0  0  0  0  0
   -6.5800   -3.4490    3.0120 H   0  0  0  0  0  0  0  0  0  0  0  0
   -4.9870   -4.6340    1.5740 H   0  0  0  0  0  0  0  0  0  0  0  0
   -6.3820   -6.3920    0.6090 H   0  0  0  0  0  0  0  0  0  0  0  0
   -7.1270   -6.5840   -1.8240 H   0  0  0  0  0  0  0  0  0  0  0  0
   -3.5000   -2.4870    1.3600 H   0  0  0  0  0  0  0  0  0  0  0  0
   -4.5330   -2.0380   -0.0000 H   0  0  0  0  0  0  0  0  0  0  0  0
   -3.9000   -4.5720   -0.7820 H   0  0  0  0  0  0  0  0  0  0  0  0
   -2.9840   -3.1550   -1.2430 H   0  0  0  0  0  0  0  0  0  0  0  0
  -10.0660    3.5740   -2.4020 H   0  0  0  0  0  0  0  0  0  0  0  0
  -10.2140    2.4890   -3.7810 H   0  0  0  0  0  0  0  0  0  0  0  0
  -11.4740    3.6880   -3.4520 H   0  0  0  0  0  0  0  0  0  0  0  0
  -14.3080    0.9690   -4.0770 H   0  0  0  0  0  0  0  0  0  0  0  0
  -13.3600    2.4230   -4.4120 H   0  0  0  0  0  0  0  0  0  0  0  0
  -14.2640    2.2770   -2.8890 H   0  0  0  0  0  0  0  0  0  0  0  0
   -9.0960   -5.2130   -4.0000 H   0  0  0  0  0  0  0  0  0  0  0  0
  -10.2790   -5.8490   -2.8020 H   0  0  0  0  0  0  0  0  0  0  0  0
  -10.7860   -4.8530   -4.1440 H   0  0  0  0  0  0  0  0  0  0  0  0
  1  2  1  0
  1  5  2  0
  1 17  1  0
  2  6  2  0
  2 20  1  0
  3  4  2  0
  3  7  1  0
  3 21  1  0
  4  8  1  0
  4 26  1  0
  5  9  1  0
  5 11  1  0
  6 10  1  0
  6 14  1  0
  7  9  2  0
  7 13  1  0
  8 10  2  0
  8 16  1  0
  9 10  1  0
 11 12  1  0
 11 24  1  0
 11100  1  6
 12 13  1  0
 12101  1  0
 12102  1  0
 13103  1  0
 13104  1  0
 14 15  1  0
 14 22  1  0
 14105  1  1
 15 16  1  0
 15106  1  0
 15107  1  0
 16108  1  0
 16109  1  0
 17 18  1  0
 17110  1  0
 17111  1  0
 18 19  1  0
 18112  1  0
 18113  1  0
 19 20  1  0
 19114  1  0
 19115  1  0
 20 25  1  0
 20116  1  1
 21117  1  0
 22 23  1  0
 22118  1  0
 22119  1  0
 23120  1  0
 23121  1  0
 23122  1  0
 24123  1  0
 24124  1  0
 24125  1  0
 25 38  1  0
 25126  1  0
 25127  1  0
 26128  1  0
 26129  1  0
 26130  1  0
 27 28  2  0
 27 32  1  0
 27 33  1  0
 28 29  1  0
 28131  1  0
 29 30  2  0
 29132  1  0
 30 31  1  0
 30133  1  0
 31 32  2  0
 31 38  1  0
 32134  1  0
 33 34  2  0
 33 35  1  0
 35 36  1  0
 35135  1  0
 35136  1  0
 36 37  1  0
 36137  1  0
 36138  1  0
 37 63  1  0
 37139  1  0
 37140  1  0
 38141  1  0
 38142  1  0
 39 40  2  0
 39 43  1  0
 39 59  1  0
 40 44  1  0
 40 60  1  0
 41 42  1  0
 41 45  2  0
 41 61  1  0
 42 46  2  0
 42 58  1  0
 43 47  2  0
 43 49  1  0
 44 48  2  0
 44 52  1  0
 45 47  1  0
 45 51  1  0
 46 48  1  0
 46 54  1  0
 47 48  1  0
 49 50  1  0
 49 55  1  0
 49143  1  1
 50 51  1  0
 50 64  1  0
 50144  1  1
 51 62  1  0
 51145  1  1
 52 53  1  0
 52 65  1  0
 52146  1  6
 53 54  1  0
 53147  1  0
 53148  1  0
 54 63  1  0
 54149  1  6
 55 56  2  0
 55 57  1  0
 57150  1  0
 57151  1  0
 57152  1  0
 58153  1  0
 59154  1  0
 60155  1  0
 61 96  1  0
 62156  1  0
 62157  1  0
 62158  1  0
 63159  1  0
 63160  1  0
 64161  1  0
 64162  1  0
 64163  1  0
 65164  1  0
 65165  1  0
 65166  1  0
 66 67  2  0
 66 69  1  0
 66 75  1  0
 67 70  1  0
 67 78  1  0
 68 71  2  0
 68 72  1  0
 68 98  1  0
 69 73  2  0
 69 84  1  0
 70 74  2  0
 70 87  1  0
 71 73  1  0
 71 86  1  0
 72 74  1  0
 72 97  1  0
 72167  1  1
 73 74  1  0
 75 76  2  0
 75 79  1  0
 76 77  1  0
 76 82  1  0
 77 78  2  0
 77 90  1  0
 78 89  1  0
 79 80  2  0
 79 83  1  0
 80 81  1  0
 80 94  1  0
 81 82  2  0
 81 93  1  0
 82 92  1  0
 83 84  2  0
 83 99  1  0
 84 85  1  0
 85 86  1  0
 85168  1  0
 85169  1  0
 86170  1  0
 86171  1  0
 87 88  1  0
 87172  1  0
 87173  1  0
 88 89  1  0
 88174  1  0
 88175  1  0
 89176  1  0
 89177  1  0
 90 91  1  0
 90178  1  0
 90179  1  0
 91 92  1  0
 91180  1  0
 91181  1  0
 92 95  1  0
 92182  1  1
 93183  1  0
 94184  1  0
 95 96  1  0
 95185  1  0
 95186  1  0
 96187  1  0
 96188  1  0
 97189  1  0
 97190  1  0
 97191  1  0
 98192  1  0
 98193  1  0
 98194  1  0
 99195  1  0
 99196  1  0
 99197  1  0
M  END
