
     RDKit          3D

 84 93  0  0  0  0  0  0  0  0999 V2000
   -4.6340    5.8020   -0.8140 C   0  0  0  0  0  0  0  0  0  0  0  0
   -4.2680    5.4750    0.4930 C   0  0  0  0  0  0  0  0  0  0  0  0
   -2.9290    5.5680    0.9000 C   0  0  0  0  0  0  0  0  0  0  0  0
   -1.9680    6.0110   -0.0220 C   0  0  0  0  0  0  0  0  0  0  0  0
   -2.3370    6.3380   -1.3270 C   0  0  0  0  0  0  0  0  0  0  0  0
   -3.6680    6.2320   -1.7230 C   0  0  0  0  0  0  0  0  0  0  0  0
   -2.5360    5.2290    2.3180 C   0  0  0  0  0  0  0  0  0  0  0  0
    0.8790   -0.7210   -0.0660 C   0  0  0  0  0  0  0  0  0  0  0  0
   -0.3530   -1.4140   -0.2520 C   0  0  0  0  0  0  0  0  0  0  0  0
    2.7190   -4.2020   -2.4750 C   0  0  0  0  0  0  0  0  0  0  0  0
    2.0790   -1.2780   -0.5440 C   0  0  0  0  0  0  0  0  0  0  0  0
   -0.3830   -2.6690   -0.9920 C   0  0  0  0  0  0  0  0  0  0  0  0
    3.1400   -3.0570   -1.9320 C   0  0  0  0  0  0  0  0  0  0  0  0
    1.2550   -4.4800   -2.1560 C   0  0  2  0  0  0  0  0  0  0  0  0
    2.0110   -2.4750   -1.2260 C   0  0  0  0  0  0  0  0  0  0  0  0
    0.8380   -3.2190   -1.4160 C   0  0  0  0  0  0  0  0  0  0  0  0
    0.9420    0.5460    0.5690 C   0  0  0  0  0  0  0  0  0  0  0  0
   -0.2380    1.1840    1.0220 C   0  0  0  0  0  0  0  0  0  0  0  0
   -1.4710    0.4940    0.8670 C   0  0  0  0  0  0  0  0  0  0  0  0
   -1.5220   -0.8110    0.2830 C   0  0  0  0  0  0  0  0  0  0  0  0
    2.1970    1.1840    0.7270 C   0  0  0  0  0  0  0  0  0  0  0  0
    2.2660    2.4260    1.3450 C   0  0  0  0  0  0  0  0  0  0  0  0
    1.1080    3.0620    1.8020 C   0  0  0  0  0  0  0  0  0  0  0  0
   -0.1820    2.4820    1.6230 C   0  0  0  0  0  0  0  0  0  0  0  0
    3.3750    0.5730    0.2840 C   0  0  0  0  0  0  0  0  0  0  0  0
    3.3280   -0.6620   -0.3540 C   0  0  0  0  0  0  0  0  0  0  0  0
   -2.6610    1.1120    1.3100 C   0  0  0  0  0  0  0  0  0  0  0  0
   -3.8750    0.4240    1.2080 C   0  0  0  0  0  0  0  0  0  0  0  0
   -3.9260   -0.8700    0.7130 C   0  0  0  0  0  0  0  0  0  0  0  0
   -2.7580   -1.5020    0.2630 C   0  0  0  0  0  0  0  0  0  0  0  0
   -1.4170    3.1030    1.9640 C   0  0  0  0  0  0  0  0  0  0  0  0
   -2.6160    2.4070    1.8380 C   0  0  0  0  0  0  0  0  0  0  0  0
   -1.7930   -3.1690   -1.4060 C   0  0  1  0  0  0  0  0  0  0  0  0
   -2.7500   -2.9670   -0.1760 C   0  0  2  0  0  0  0  0  0  0  0  0
    4.6160   -1.3780   -0.7600 C   0  0  2  0  0  0  0  0  0  0  0  0
    4.4320   -2.3070   -1.9990 C   0  0  2  0  0  0  0  0  0  0  0  0
    1.3480    4.3230    2.5490 C   0  0  0  0  0  0  0  0  0  0  0  0
    2.3400    5.0190    2.3460 O   0  0  0  0  0  0  0  0  0  0  0  0
   -2.2690   -2.3200   -2.6000 C   0  0  0  0  0  0  0  0  0  0  0  0
   -1.6810   -2.2520   -3.6790 O   0  0  0  0  0  0  0  0  0  0  0  0
   -5.0330    1.0280    1.6260 O   0  0  0  0  0  0  0  0  0  0  0  0
   -1.3700    4.4000    2.4080 O   0  0  0  0  0  0  0  0  0  0  0  0
   -4.1530   -3.5890   -0.3430 C   0  0  0  0  0  0  0  0  0  0  0  0
   -1.9170   -4.6210   -1.8960 C   0  0  0  0  0  0  0  0  0  0  0  0
    1.1740   -5.8010   -1.3660 C   0  0  0  0  0  0  0  0  0  0  0  0
    1.8380   -5.7980    0.0090 C   0  0  0  0  0  0  0  0  0  0  0  0
    5.1410   -2.1800    0.4420 C   0  0  0  0  0  0  0  0  0  0  0  0
    4.4880   -1.4920   -3.2980 C   0  0  0  0  0  0  0  0  0  0  0  0
   -5.6720    5.7240   -1.1230 H   0  0  0  0  0  0  0  0  0  0  0  0
   -5.0350    5.1400    1.1870 H   0  0  0  0  0  0  0  0  0  0  0  0
   -0.9230    6.0950    0.2720 H   0  0  0  0  0  0  0  0  0  0  0  0
   -1.5840    6.6730   -2.0360 H   0  0  0  0  0  0  0  0  0  0  0  0
   -3.9530    6.4850   -2.7420 H   0  0  0  0  0  0  0  0  0  0  0  0
   -2.2850    6.1730    2.8170 H   0  0  0  0  0  0  0  0  0  0  0  0
   -3.3610    4.8060    2.9010 H   0  0  0  0  0  0  0  0  0  0  0  0
    3.3210   -4.8470   -3.1000 H   0  0  0  0  0  0  0  0  0  0  0  0
    0.7330   -4.5510   -3.1140 H   0  0  0  0  0  0  0  0  0  0  0  0
    3.2330    2.9070    1.4920 H   0  0  0  0  0  0  0  0  0  0  0  0
    4.3380    1.0560    0.4380 H   0  0  0  0  0  0  0  0  0  0  0  0
   -4.8810   -1.3810    0.6950 H   0  0  0  0  0  0  0  0  0  0  0  0
   -3.5520    2.8580    2.1500 H   0  0  0  0  0  0  0  0  0  0  0  0
   -2.3060   -3.5120    0.6730 H   0  0  0  0  0  0  0  0  0  0  0  0
    5.3730   -0.6210   -1.0050 H   0  0  0  0  0  0  0  0  0  0  0  0
    5.2640   -3.0240   -2.0340 H   0  0  0  0  0  0  0  0  0  0  0  0
    0.6350    4.5970    3.3380 H   0  0  0  0  0  0  0  0  0  0  0  0
   -3.2160   -1.7680   -2.4630 H   0  0  0  0  0  0  0  0  0  0  0  0
   -5.7910    0.4680    1.3900 H   0  0  0  0  0  0  0  0  0  0  0  0
   -4.1020   -4.6630   -0.5450 H   0  0  0  0  0  0  0  0  0  0  0  0
   -4.7200   -3.1120   -1.1480 H   0  0  0  0  0  0  0  0  0  0  0  0
   -4.7340   -3.5070    0.5830 H   0  0  0  0  0  0  0  0  0  0  0  0
   -1.7530   -5.3290   -1.0790 H   0  0  0  0  0  0  0  0  0  0  0  0
   -2.9130   -4.8250   -2.3090 H   0  0  0  0  0  0  0  0  0  0  0  0
   -1.2480   -4.8500   -2.7250 H   0  0  0  0  0  0  0  0  0  0  0  0
    0.1380   -6.1070   -1.2260 H   0  0  0  0  0  0  0  0  0  0  0  0
    1.6320   -6.5990   -1.9660 H   0  0  0  0  0  0  0  0  0  0  0  0
    1.7450   -6.7890    0.4640 H   0  0  0  0  0  0  0  0  0  0  0  0
    1.3610   -5.0800    0.6840 H   0  0  0  0  0  0  0  0  0  0  0  0
    2.9050   -5.5680   -0.0520 H   0  0  0  0  0  0  0  0  0  0  0  0
    5.3150   -1.5270    1.3060 H   0  0  0  0  0  0  0  0  0  0  0  0
    4.4360   -2.9560    0.7570 H   0  0  0  0  0  0  0  0  0  0  0  0
    6.0920   -2.6650    0.1960 H   0  0  0  0  0  0  0  0  0  0  0  0
    5.4390   -0.9530   -3.3750 H   0  0  0  0  0  0  0  0  0  0  0  0
    3.6800   -0.7530   -3.3570 H   0  0  0  0  0  0  0  0  0  0  0  0
    4.4090   -2.1460   -4.1750 H   0  0  0  0  0  0  0  0  0  0  0  0
  1  2  2  0
  1  6  1  0
  1 49  1  0
  2  3  1  0
  2 50  1  0
  3  4  2  0
  3  7  1  0
  4  5  1  0
  4 51  1  0
  5  6  2  0
  5 52  1  0
  6 53  1  0
  7 42  1  0
  7 54  1  0
  7 55  1  0
  8  9  2  0
  8 11  1  0
  8 17  1  0
  9 12  1  0
  9 20  1  0
 10 13  2  0
 10 14  1  0
 10 56  1  0
 11 15  2  0
 11 26  1  0
 12 16  2  0
 12 33  1  0
 13 15  1  0
 13 36  1  0
 14 16  1  0
 14 45  1  0
 14 57  1  6
 15 16  1  0
 17 18  2  0
 17 21  1  0
 18 19  1  0
 18 24  1  0
 19 20  2  0
 19 27  1  0
 20 30  1  0
 21 22  2  0
 21 25  1  0
 22 23  1  0
 22 58  1  0
 23 24  2  0
 23 37  1  0
 24 31  1  0
 25 26  2  0
 25 59  1  0
 26 35  1  0
 27 28  2  0
 27 32  1  0
 28 29  1  0
 28 41  1  0
 29 30  2  0
 29 60  1  0
 30 34  1  0
 31 32  2  0
 31 42  1  0
 32 61  1  0
 33 34  1  0
 33 39  1  0
 33 44  1  6
 34 43  1  0
 34 62  1  1
 35 36  1  0
 35 47  1  0
 35 63  1  6
 36 48  1  0
 36 64  1  6
 37 38  2  0
 37 65  1  0
 39 40  2  0
 39 66  1  0
 41 67  1  0
 43 68  1  0
 43 69  1  0
 43 70  1  0
 44 71  1  0
 44 72  1  0
 44 73  1  0
 45 46  1  0
 45 74  1  0
 45 75  1  0
 46 76  1  0
 46 77  1  0
 46 78  1  0
 47 79  1  0
 47 80  1  0
 47 81  1  0
 48 82  1  0
 48 83  1  0
 48 84  1  0
M  END
