
     RDKit          3D

 99111  0  0  0  0  0  0  0  0999 V2000
    0.9350   -1.3860   -1.1170 C   0  0  0  0  0  0  0  0  0  0  0  0
    1.6920   -1.5950    0.0630 C   0  0  0  0  0  0  0  0  0  0  0  0
    5.2540    3.0910    2.4110 C   0  0  0  0  0  0  0  0  0  0  0  0
    1.3190   -0.4200   -2.0780 C   0  0  0  0  0  0  0  0  0  0  0  0
    5.9080    3.7760    1.4080 C   0  0  0  0  0  0  0  0  0  0  0  0
    2.7950   -0.7220    0.3610 C   0  0  0  0  0  0  0  0  0  0  0  0
    4.4180    2.1500    1.8100 N   0  0  0  0  0  0  0  0  0  0  0  0
    5.7050    3.6080   -1.1130 C   0  0  0  0  0  0  0  0  0  0  0  0
    4.9870    3.0230   -2.1840 C   0  0  0  0  0  0  0  0  0  0  0  0
    3.1810    1.2540   -2.5620 N   0  0  0  0  0  0  0  0  0  0  0  0
    5.4610    3.2210    0.2010 C   0  0  0  0  0  0  0  0  0  0  0  0
    2.4470    0.3910   -1.7560 C   0  0  0  0  0  0  0  0  0  0  0  0
    4.0720    1.9860   -1.8390 C   0  0  0  0  0  0  0  0  0  0  0  0
    4.5860    2.2010    0.4730 C   0  0  0  0  0  0  0  0  0  0  0  0
    3.0850    0.3680   -0.5080 C   0  0  0  0  0  0  0  0  0  0  0  0
    3.9360    1.5310   -0.5330 C   0  0  0  0  0  0  0  0  0  0  0  0
   -0.2080   -2.1860   -1.3810 C   0  0  0  0  0  0  0  0  0  0  0  0
   -0.6830   -3.0910   -0.4040 C   0  0  0  0  0  0  0  0  0  0  0  0
    0.0180   -3.2220    0.8300 C   0  0  0  0  0  0  0  0  0  0  0  0
    1.3070   -2.6510    0.9510 C   0  0  0  0  0  0  0  0  0  0  0  0
    6.6520    4.6370   -1.2650 C   0  0  0  0  0  0  0  0  0  0  0  0
    6.8900    5.0910   -2.5640 C   0  0  0  0  0  0  0  0  0  0  0  0
    6.1810    4.5430   -3.6510 C   0  0  0  0  0  0  0  0  0  0  0  0
    5.2370    3.5180   -3.4720 C   0  0  0  0  0  0  0  0  0  0  0  0
   -0.9230   -2.0740   -2.6070 C   0  0  0  0  0  0  0  0  0  0  0  0
   -2.0130   -2.8090   -2.8720 N   0  0  0  0  0  0  0  0  0  0  0  0
   -2.4510   -3.6650   -1.9400 C   0  0  0  0  0  0  0  0  0  0  0  0
   -1.8350   -3.8350   -0.7190 C   0  0  0  0  0  0  0  0  0  0  0  0
   -0.5100   -1.1560   -3.5690 C   0  0  0  0  0  0  0  0  0  0  0  0
    0.5580   -0.2890   -3.2760 C   0  0  0  0  0  0  0  0  0  0  0  0
    7.4610    5.1300   -0.0630 C   0  0  0  0  0  0  0  0  0  0  0  0
    6.7950    4.9720    1.3460 C   0  0  0  0  0  0  0  0  0  0  0  0
    3.7210   -1.0930    1.5030 C   0  0  0  0  0  0  0  0  0  0  0  0
    3.0390   -1.9250    2.5770 C   0  0  0  0  0  0  0  0  0  0  0  0
    2.4030   -3.1380    1.9070 C   0  0  1  0  0  0  0  0  0  0  0  0
    0.7880    0.8560   -4.1930 C   0  0  0  0  0  0  0  0  0  0  0  0
    1.8150    0.9150   -4.8630 O   0  0  0  0  0  0  0  0  0  0  0  0
   -0.2540    1.9450   -4.2180 C   0  0  0  0  0  0  0  0  0  0  0  0
    2.1790   -4.2570    2.9240 C   0  0  0  0  0  0  0  0  0  0  0  0
   -0.7250   -3.7800    2.0450 C   0  0  0  0  0  0  0  0  0  0  0  0
   -1.2560   -1.0650   -4.8830 C   0  0  0  0  0  0  0  0  0  0  0  0
   -5.0400    2.1820    1.7480 C   0  0  0  0  0  0  0  0  0  0  0  0
   -5.8960    1.1690    2.2080 C   0  0  0  0  0  0  0  0  0  0  0  0
   -1.0620   -0.4080    2.2960 C   0  0  0  0  0  0  0  0  0  0  0  0
   -1.7580   -1.5250    2.7750 C   0  0  0  0  0  0  0  0  0  0  0  0
   -3.7150    2.0280    1.6570 N   0  0  0  0  0  0  0  0  0  0  0  0
   -5.2570   -0.0420    2.5750 C   0  0  0  0  0  0  0  0  0  0  0  0
   -1.7360    0.7500    1.9210 C   0  0  0  0  0  0  0  0  0  0  0  0
   -3.1610   -1.4270    2.8800 C   0  0  0  0  0  0  0  0  0  0  0  0
   -3.1210    0.8730    2.0260 C   0  0  0  0  0  0  0  0  0  0  0  0
   -3.8530   -0.2260    2.5100 C   0  0  0  0  0  0  0  0  0  0  0  0
   -5.5660    3.4100    1.3690 C   0  0  0  0  0  0  0  0  0  0  0  0
   -6.9310    3.6770    1.4250 C   0  0  0  0  0  0  0  0  0  0  0  0
   -7.7990    2.6910    1.8690 C   0  0  0  0  0  0  0  0  0  0  0  0
   -7.2960    1.4420    2.2590 C   0  0  0  0  0  0  0  0  0  0  0  0
   -8.3150    0.4660    2.7280 C   0  0  0  0  0  0  0  0  0  0  0  0
   -8.0730   -0.6870    3.0550 O   0  0  0  0  0  0  0  0  0  0  0  0
   -3.9440   -2.5680    3.4230 C   0  0  0  0  0  0  0  0  0  0  0  0
   -3.6610   -3.7360    3.1900 O   0  0  0  0  0  0  0  0  0  0  0  0
   -0.9970    1.8030    1.4330 O   0  0  0  0  0  0  0  0  0  0  0  0
   -0.9450   -2.7450    3.1720 C   0  0  0  0  0  0  0  0  0  0  0  0
    5.2450    3.2150    3.4860 H   0  0  0  0  0  0  0  0  0  0  0  0
    3.7230    1.6180    2.3100 H   0  0  0  0  0  0  0  0  0  0  0  0
    3.0440    1.3460   -3.5630 H   0  0  0  0  0  0  0  0  0  0  0  0
    7.6310    5.8650   -2.7430 H   0  0  0  0  0  0  0  0  0  0  0  0
    6.3860    4.9110   -4.6540 H   0  0  0  0  0  0  0  0  0  0  0  0
    4.7100    3.1190   -4.3340 H   0  0  0  0  0  0  0  0  0  0  0  0
   -3.3330   -4.2380   -2.2040 H   0  0  0  0  0  0  0  0  0  0  0  0
   -2.2540   -4.5850   -0.0580 H   0  0  0  0  0  0  0  0  0  0  0  0
    8.3960    4.5570   -0.0590 H   0  0  0  0  0  0  0  0  0  0  0  0
    7.7340    6.1830   -0.2010 H   0  0  0  0  0  0  0  0  0  0  0  0
    6.1790    5.8580    1.5430 H   0  0  0  0  0  0  0  0  0  0  0  0
    7.5690    4.9330    2.1200 H   0  0  0  0  0  0  0  0  0  0  0  0
    4.1660   -0.2300    1.9830 H   0  0  0  0  0  0  0  0  0  0  0  0
    4.5540   -1.6660    1.0730 H   0  0  0  0  0  0  0  0  0  0  0  0
    3.7920   -2.2300    3.3140 H   0  0  0  0  0  0  0  0  0  0  0  0
    2.2870   -1.3300    3.1100 H   0  0  0  0  0  0  0  0  0  0  0  0
    3.1540   -3.5770    1.2290 H   0  0  0  0  0  0  0  0  0  0  0  0
    0.2230    2.9000   -3.9750 H   0  0  0  0  0  0  0  0  0  0  0  0
   -1.0410    1.7660   -3.4810 H   0  0  0  0  0  0  0  0  0  0  0  0
   -0.7020    2.0000   -5.2140 H   0  0  0  0  0  0  0  0  0  0  0  0
    1.5070   -3.9670    3.7350 H   0  0  0  0  0  0  0  0  0  0  0  0
    3.1310   -4.5300    3.3940 H   0  0  0  0  0  0  0  0  0  0  0  0
    1.8060   -5.1630    2.4380 H   0  0  0  0  0  0  0  0  0  0  0  0
   -1.7090   -4.1550    1.7690 H   0  0  0  0  0  0  0  0  0  0  0  0
   -0.2180   -4.6670    2.4240 H   0  0  0  0  0  0  0  0  0  0  0  0
   -2.1240   -0.4130   -4.7690 H   0  0  0  0  0  0  0  0  0  0  0  0
   -1.5950   -2.0490   -5.2190 H   0  0  0  0  0  0  0  0  0  0  0  0
   -0.6150   -0.6820   -5.6820 H   0  0  0  0  0  0  0  0  0  0  0  0
    0.0210   -0.4330    2.2280 H   0  0  0  0  0  0  0  0  0  0  0  0
   -5.8760   -0.8690    2.9100 H   0  0  0  0  0  0  0  0  0  0  0  0
   -4.8850    4.1850    1.0200 H   0  0  0  0  0  0  0  0  0  0  0  0
   -7.3050    4.6510    1.1170 H   0  0  0  0  0  0  0  0  0  0  0  0
   -8.8650    2.9090    1.9030 H   0  0  0  0  0  0  0  0  0  0  0  0
   -9.3510    0.8400    2.7700 H   0  0  0  0  0  0  0  0  0  0  0  0
   -4.8110   -2.3190    4.0530 H   0  0  0  0  0  0  0  0  0  0  0  0
   -0.1470    1.4670    1.0950 H   0  0  0  0  0  0  0  0  0  0  0  0
    0.0170   -2.3940    3.5600 H   0  0  0  0  0  0  0  0  0  0  0  0
   -1.4090   -3.2360    4.0340 H   0  0  0  0  0  0  0  0  0  0  0  0
  1  2  2  0
  1  4  1  0
  1 17  1  0
  2  6  1  0
  2 20  1  0
  3  5  2  0
  3  7  1  0
  3 62  1  0
  4 12  2  0
  4 30  1  0
  5 11  1  0
  5 32  1  0
  6 15  2  0
  6 33  1  0
  7 14  1  0
  7 63  1  0
  8  9  1  0
  8 11  2  0
  8 21  1  0
  9 13  2  0
  9 24  1  0
 10 12  1  0
 10 13  1  0
 10 64  1  0
 11 14  1  0
 12 15  1  0
 13 16  1  0
 14 16  2  0
 15 16  1  0
 17 18  2  0
 17 25  1  0
 18 19  1  0
 18 28  1  0
 19 20  2  0
 19 40  1  0
 20 35  1  0
 21 22  2  0
 21 31  1  0
 22 23  1  0
 22 65  1  0
 23 24  2  0
 23 66  1  0
 24 67  1  0
 25 26  2  0
 25 29  1  0
 26 27  1  0
 27 28  2  0
 27 68  1  0
 28 69  1  0
 29 30  2  0
 29 41  1  0
 30 36  1  0
 31 32  1  0
 31 70  1  0
 31 71  1  0
 32 72  1  0
 32 73  1  0
 33 34  1  0
 33 74  1  0
 33 75  1  0
 34 35  1  0
 34 76  1  0
 34 77  1  0
 35 39  1  0
 35 78  1  6
 36 37  2  0
 36 38  1  0
 38 79  1  0
 38 80  1  0
 38 81  1  0
 39 82  1  0
 39 83  1  0
 39 84  1  0
 40 61  1  0
 40 85  1  0
 40 86  1  0
 41 87  1  0
 41 88  1  0
 41 89  1  0
 42 43  1  0
 42 46  2  0
 42 52  1  0
 43 47  2  0
 43 55  1  0
 44 45  2  0
 44 48  1  0
 44 90  1  0
 45 49  1  0
 45 61  1  0
 46 50  1  0
 47 51  1  0
 47 91  1  0
 48 50  2  0
 48 60  1  0
 49 51  2  0
 49 58  1  0
 50 51  1  0
 52 53  2  0
 52 92  1  0
 53 54  1  0
 53 93  1  0
 54 55  2  0
 54 94  1  0
 55 56  1  0
 56 57  2  0
 56 95  1  0
 58 59  2  0
 58 96  1  0
 60 97  1  0
 61 98  1  0
 61 99  1  0
M  END
