
     RDKit          3D

102113  0  0  0  0  0  0  0  0999 V2000
   -4.0250   -1.7510   -2.7440 C   0  0  0  0  0  0  0  0  0  0  0  0
   -4.1090   -1.3680   -1.3750 C   0  0  0  0  0  0  0  0  0  0  0  0
   -0.2630    2.5180    1.7370 C   0  0  0  0  0  0  0  0  0  0  0  0
   -3.0800   -1.1570   -3.6210 C   0  0  0  0  0  0  0  0  0  0  0  0
    0.7160    3.0160    0.9020 C   0  0  0  0  0  0  0  0  0  0  0  0
   -3.2360   -0.3430   -0.9090 C   0  0  0  0  0  0  0  0  0  0  0  0
   -1.0730    1.6960    0.9850 N   0  0  0  0  0  0  0  0  0  0  0  0
    1.0180    2.9050   -1.6180 C   0  0  0  0  0  0  0  0  0  0  0  0
    0.6090    2.2610   -2.8020 C   0  0  0  0  0  0  0  0  0  0  0  0
   -1.1070    0.5600   -3.8090 C   0  0  0  0  0  0  0  0  0  0  0  0
    0.3650    2.6240   -0.4080 C   0  0  0  0  0  0  0  0  0  0  0  0
   -2.2100   -0.2000   -3.0900 C   0  0  0  0  0  0  0  0  0  0  0  0
   -0.4930    1.3940   -2.7050 C   0  0  0  0  0  0  0  0  0  0  0  0
   -0.7290    1.7710   -0.3460 C   0  0  0  0  0  0  0  0  0  0  0  0
   -2.2630    0.1960   -1.7380 C   0  0  0  0  0  0  0  0  0  0  0  0
   -1.2010    1.1530   -1.4980 C   0  0  0  0  0  0  0  0  0  0  0  0
   -4.9020   -2.7330   -3.2650 C   0  0  0  0  0  0  0  0  0  0  0  0
   -5.8330   -3.3290   -2.4040 C   0  0  0  0  0  0  0  0  0  0  0  0
   -5.9170   -2.9970   -1.1120 N   0  0  0  0  0  0  0  0  0  0  0  0
   -5.0810   -2.0480   -0.6040 C   0  0  0  0  0  0  0  0  0  0  0  0
    2.0850    3.8350   -1.5420 C   0  0  0  0  0  0  0  0  0  0  0  0
    2.7790    4.0880   -2.7310 C   0  0  0  0  0  0  0  0  0  0  0  0
    2.4220    3.4340   -3.9220 C   0  0  0  0  0  0  0  0  0  0  0  0
    1.3410    2.5440   -3.9680 C   0  0  0  0  0  0  0  0  0  0  0  0
   -4.8570   -3.1070   -4.6290 C   0  0  0  0  0  0  0  0  0  0  0  0
   -5.7450   -4.0740   -5.1170 C   0  0  0  0  0  0  0  0  0  0  0  0
   -6.6690   -4.6620   -4.2630 C   0  0  0  0  0  0  0  0  0  0  0  0
   -6.6930   -4.2930   -2.9150 C   0  0  0  0  0  0  0  0  0  0  0  0
   -3.9290   -2.4950   -5.4700 C   0  0  0  0  0  0  0  0  0  0  0  0
   -3.0460   -1.5370   -4.9730 C   0  0  0  0  0  0  0  0  0  0  0  0
    2.3380    4.6030   -0.2160 C   0  0  1  0  0  0  0  0  0  0  0  0
    2.0290    3.7540    1.1240 C   0  0  1  0  0  0  0  0  0  0  0  0
   -3.3990    0.1850    0.3430 O   0  0  0  0  0  0  0  0  0  0  0  0
    1.9640    4.6280    2.4140 C   0  0  0  0  0  0  0  0  0  0  0  0
    1.0210    5.8240    2.3540 C   0  0  0  0  0  0  0  0  0  0  0  0
    3.7070    5.2960   -0.1680 C   0  0  0  0  0  0  0  0  0  0  0  0
    3.1640    2.6770    1.3010 C   0  0  0  0  0  0  0  0  0  0  0  0
   -5.2890   -1.7980    0.8630 C   0  0  0  0  0  0  0  0  0  0  0  0
    0.5710   -2.5170    3.0480 C   0  0  0  0  0  0  0  0  0  0  0  0
    0.2530   -1.1990    3.3640 C   0  0  0  0  0  0  0  0  0  0  0  0
    4.9560   -1.0620    1.4590 C   0  0  0  0  0  0  0  0  0  0  0  0
    4.6250    0.2520    1.7720 C   0  0  0  0  0  0  0  0  0  0  0  0
    1.8000   -2.8340    2.4440 C   0  0  0  0  0  0  0  0  0  0  0  0
    1.1920   -0.1980    3.1660 C   0  0  0  0  0  0  0  0  0  0  0  0
    4.0140   -2.0820    1.6400 C   0  0  0  0  0  0  0  0  0  0  0  0
    3.3560    0.5570    2.2730 C   0  0  0  0  0  0  0  0  0  0  0  0
    2.7500   -1.8040    2.2170 C   0  0  0  0  0  0  0  0  0  0  0  0
    2.4310   -0.4670    2.5640 C   0  0  0  0  0  0  0  0  0  0  0  0
    2.1340   -4.2630    2.0580 C   0  0  0  0  0  0  0  0  0  0  0  0
    3.1380   -4.3100    0.8980 C   0  0  1  0  0  0  0  0  0  0  0  0
    4.3870   -3.4970    1.2520 C   0  0  0  0  0  0  0  0  0  0  0  0
   -0.4150   -3.5530    3.4050 C   0  0  0  0  0  0  0  0  0  0  0  0
   -1.4930   -3.5690    2.8070 O   0  0  0  0  0  0  0  0  0  0  0  0
   -0.0680   -4.4880    4.5470 C   0  0  0  0  0  0  0  0  0  0  0  0
   -0.9690   -0.8310    3.8640 O   0  0  0  0  0  0  0  0  0  0  0  0
    2.9900    1.8700    2.4890 O   0  0  0  0  0  0  0  0  0  0  0  0
    3.4990   -5.7500    0.5430 C   0  0  0  0  0  0  0  0  0  0  0  0
   -1.2890   -4.7570    5.4110 C   0  0  0  0  0  0  0  0  0  0  0  0
   -0.3850    2.5630    2.8110 H   0  0  0  0  0  0  0  0  0  0  0  0
   -1.7750    1.0720    1.3660 H   0  0  0  0  0  0  0  0  0  0  0  0
   -1.5190    1.2020   -4.5910 H   0  0  0  0  0  0  0  0  0  0  0  0
   -0.3770   -0.1460   -4.2140 H   0  0  0  0  0  0  0  0  0  0  0  0
    3.6000    4.7980   -2.7770 H   0  0  0  0  0  0  0  0  0  0  0  0
    2.9760    3.6430   -4.8370 H   0  0  0  0  0  0  0  0  0  0  0  0
    1.0800    2.0710   -4.9130 H   0  0  0  0  0  0  0  0  0  0  0  0
   -5.7110   -4.3720   -6.1610 H   0  0  0  0  0  0  0  0  0  0  0  0
   -7.3580   -5.4130   -4.6370 H   0  0  0  0  0  0  0  0  0  0  0  0
   -7.4170   -4.7680   -2.2560 H   0  0  0  0  0  0  0  0  0  0  0  0
   -3.8870   -2.7450   -6.5290 H   0  0  0  0  0  0  0  0  0  0  0  0
   -2.3330   -1.0910   -5.6600 H   0  0  0  0  0  0  0  0  0  0  0  0
    1.5910    5.4070   -0.2600 H   0  0  0  0  0  0  0  0  0  0  0  0
   -3.5410    1.1380    0.1860 H   0  0  0  0  0  0  0  0  0  0  0  0
    2.9700    4.9950    2.6470 H   0  0  0  0  0  0  0  0  0  0  0  0
    1.6630    4.0060    3.2680 H   0  0  0  0  0  0  0  0  0  0  0  0
   -0.0010    5.5320    2.1160 H   0  0  0  0  0  0  0  0  0  0  0  0
    1.0060    6.3240    3.3250 H   0  0  0  0  0  0  0  0  0  0  0  0
    1.3530    6.5620    1.6210 H   0  0  0  0  0  0  0  0  0  0  0  0
    3.7760    6.0700   -0.9390 H   0  0  0  0  0  0  0  0  0  0  0  0
    4.5290    4.5910   -0.3290 H   0  0  0  0  0  0  0  0  0  0  0  0
    3.8610    5.8040    0.7870 H   0  0  0  0  0  0  0  0  0  0  0  0
    4.1310    3.1760    1.4230 H   0  0  0  0  0  0  0  0  0  0  0  0
    3.2090    2.0500    0.3950 H   0  0  0  0  0  0  0  0  0  0  0  0
   -4.3630   -1.9670    1.4210 H   0  0  0  0  0  0  0  0  0  0  0  0
   -6.0490   -2.4770    1.2730 H   0  0  0  0  0  0  0  0  0  0  0  0
   -5.6410   -0.7740    1.0290 H   0  0  0  0  0  0  0  0  0  0  0  0
    5.9360   -1.2830    1.0430 H   0  0  0  0  0  0  0  0  0  0  0  0
    5.3600    1.0350    1.6130 H   0  0  0  0  0  0  0  0  0  0  0  0
    0.9520    0.8100    3.4820 H   0  0  0  0  0  0  0  0  0  0  0  0
    2.5390   -4.7760    2.9440 H   0  0  0  0  0  0  0  0  0  0  0  0
    1.2270   -4.7970    1.7420 H   0  0  0  0  0  0  0  0  0  0  0  0
    2.6670   -3.8490    0.0190 H   0  0  0  0  0  0  0  0  0  0  0  0
    4.9350   -3.9600    2.0840 H   0  0  0  0  0  0  0  0  0  0  0  0
    5.0540   -3.4910    0.3780 H   0  0  0  0  0  0  0  0  0  0  0  0
    0.3130   -5.4290    4.1290 H   0  0  0  0  0  0  0  0  0  0  0  0
    0.7300   -4.0480    5.1670 H   0  0  0  0  0  0  0  0  0  0  0  0
   -1.6200   -1.5140    3.5970 H   0  0  0  0  0  0  0  0  0  0  0  0
    4.2100   -5.7820   -0.2890 H   0  0  0  0  0  0  0  0  0  0  0  0
    2.6030   -6.3080    0.2450 H   0  0  0  0  0  0  0  0  0  0  0  0
    3.9570   -6.2620    1.3970 H   0  0  0  0  0  0  0  0  0  0  0  0
   -2.0810   -5.2530    4.8350 H   0  0  0  0  0  0  0  0  0  0  0  0
   -1.6960   -3.8190    5.8090 H   0  0  0  0  0  0  0  0  0  0  0  0
   -1.0270   -5.3890    6.2620 H   0  0  0  0  0  0  0  0  0  0  0  0
  1  2  2  0
  1  4  1  0
  1 17  1  0
  2  6  1  0
  2 20  1  0
  3  5  2  0
  3  7  1  0
  3 59  1  0
  4 12  2  0
  4 30  1  0
  5 11  1  0
  5 32  1  0
  6 15  2  0
  6 33  1  0
  7 14  1  0
  7 60  1  0
  8  9  1  0
  8 11  2  0
  8 21  1  0
  9 13  2  0
  9 24  1  0
 10 12  1  0
 10 13  1  0
 10 61  1  0
 10 62  1  0
 11 14  1  0
 12 15  1  0
 13 16  1  0
 14 16  2  0
 15 16  1  0
 17 18  2  0
 17 25  1  0
 18 19  1  0
 18 28  1  0
 19 20  2  0
 20 38  1  0
 21 22  2  0
 21 31  1  0
 22 23  1  0
 22 63  1  0
 23 24  2  0
 23 64  1  0
 24 65  1  0
 25 26  2  0
 25 29  1  0
 26 27  1  0
 26 66  1  0
 27 28  2  0
 27 67  1  0
 28 68  1  0
 29 30  2  0
 29 69  1  0
 30 70  1  0
 31 32  1  0
 31 36  1  0
 31 71  1  6
 32 34  1  1
 32 37  1  0
 33 72  1  0
 34 35  1  0
 34 73  1  0
 34 74  1  0
 35 75  1  0
 35 76  1  0
 35 77  1  0
 36 78  1  0
 36 79  1  0
 36 80  1  0
 37 56  1  0
 37 81  1  0
 37 82  1  0
 38 83  1  0
 38 84  1  0
 38 85  1  0
 39 40  2  0
 39 43  1  0
 39 52  1  0
 40 44  1  0
 40 55  1  0
 41 42  1  0
 41 45  2  0
 41 86  1  0
 42 46  2  0
 42 87  1  0
 43 47  2  0
 43 49  1  0
 44 48  2  0
 44 88  1  0
 45 47  1  0
 45 51  1  0
 46 48  1  0
 46 56  1  0
 47 48  1  0
 49 50  1  0
 49 89  1  0
 49 90  1  0
 50 51  1  0
 50 57  1  0
 50 91  1  6
 51 92  1  0
 51 93  1  0
 52 53  2  0
 52 54  1  0
 54 58  1  0
 54 94  1  0
 54 95  1  0
 55 96  1  0
 57 97  1  0
 57 98  1  0
 57 99  1  0
 58100  1  0
 58101  1  0
 58102  1  0
M  END
