
     RDKit          3D

107119  0  0  0  0  0  0  0  0999 V2000
   -2.8740   -1.2770    2.5190 C   0  0  0  0  0  0  0  0  0  0  0  0
   -1.9520   -0.6380    3.3760 C   0  0  0  0  0  0  0  0  0  0  0  0
   -3.4210    3.1350    1.1790 C   0  0  0  0  0  0  0  0  0  0  0  0
   -3.6830   -0.4940    1.6470 C   0  0  0  0  0  0  0  0  0  0  0  0
   -1.8470    0.7610    3.4090 C   0  0  0  0  0  0  0  0  0  0  0  0
   -4.0420    1.9590    0.8140 C   0  0  0  0  0  0  0  0  0  0  0  0
   -2.6280    2.8550    2.2650 N   0  0  0  0  0  0  0  0  0  0  0  0
   -3.5170    0.9110    1.6270 C   0  0  0  0  0  0  0  0  0  0  0  0
   -2.6170    1.5000    2.5090 C   0  0  0  0  0  0  0  0  0  0  0  0
   -2.9340   -2.6970    2.4940 C   0  0  0  0  0  0  0  0  0  0  0  0
   -2.0140   -3.4870    3.2200 C   0  0  0  0  0  0  0  0  0  0  0  0
   -1.1300   -2.8110    4.0840 C   0  0  0  0  0  0  0  0  0  0  0  0
   -1.1120   -1.4170    4.1730 C   0  0  0  0  0  0  0  0  0  0  0  0
   -3.9030   -3.3660    1.7310 C   0  0  0  0  0  0  0  0  0  0  0  0
   -3.9650   -4.7110    1.5830 N   0  0  0  0  0  0  0  0  0  0  0  0
   -3.0140   -5.4290    2.2070 C   0  0  0  0  0  0  0  0  0  0  0  0
   -2.0210   -4.8930    3.0280 C   0  0  0  0  0  0  0  0  0  0  0  0
   -4.5700   -1.2040    0.6490 C   0  0  0  0  0  0  0  0  0  0  0  0
   -5.0320   -2.5720    1.1290 C   0  0  0  0  0  0  0  0  0  0  0  0
   -3.4560    4.4910    0.5520 C   0  0  0  0  0  0  0  0  0  0  0  0
   -0.9700   -5.8320    3.5720 C   0  0  0  0  0  0  0  0  0  0  0  0
    0.9580    5.2890   -3.2910 C   0  0  0  0  0  0  0  0  0  0  0  0
    1.1020    6.5360   -3.9260 C   0  0  0  0  0  0  0  0  0  0  0  0
   -3.1050    6.9690   -1.0770 C   0  0  0  0  0  0  0  0  0  0  0  0
   -2.9330    8.1830   -1.7350 C   0  0  0  0  0  0  0  0  0  0  0  0
   -0.1250    5.0880   -2.4160 C   0  0  0  0  0  0  0  0  0  0  0  0
    0.1590    7.5420   -3.6720 C   0  0  0  0  0  0  0  0  0  0  0  0
   -2.1930    5.9160   -1.2550 C   0  0  0  0  0  0  0  0  0  0  0  0
   -1.8490    8.3650   -2.5880 C   0  0  0  0  0  0  0  0  0  0  0  0
   -1.0860    6.0940   -2.1440 C   0  0  0  0  0  0  0  0  0  0  0  0
   -0.9240    7.3360   -2.8010 C   0  0  0  0  0  0  0  0  0  0  0  0
    1.8960    4.2740   -3.5480 C   0  0  0  0  0  0  0  0  0  0  0  0
    2.9620    4.4910   -4.4200 C   0  0  0  0  0  0  0  0  0  0  0  0
    3.1070    5.7260   -5.0440 C   0  0  0  0  0  0  0  0  0  0  0  0
    2.1830    6.7440   -4.7990 C   0  0  0  0  0  0  0  0  0  0  0  0
   -2.3770    4.5880   -0.5390 C   0  0  0  0  0  0  0  0  0  0  0  0
    2.6040   -2.9750    0.8790 C   0  0  0  0  0  0  0  0  0  0  0  0
    3.2680   -1.7760    0.5220 C   0  0  0  0  0  0  0  0  0  0  0  0
   -1.2010   -1.4600   -1.9350 C   0  0  0  0  0  0  0  0  0  0  0  0
   -0.5270   -0.2500   -2.1770 C   0  0  0  0  0  0  0  0  0  0  0  0
    1.2850   -3.1730    0.3900 C   0  0  0  0  0  0  0  0  0  0  0  0
    2.6200   -0.8210   -0.2710 C   0  0  0  0  0  0  0  0  0  0  0  0
   -0.6130   -2.4180   -1.0890 C   0  0  0  0  0  0  0  0  0  0  0  0
    0.7350   -0.0560   -1.6000 C   0  0  0  0  0  0  0  0  0  0  0  0
    0.6550   -2.2280   -0.4830 C   0  0  0  0  0  0  0  0  0  0  0  0
    1.3350   -1.0320   -0.7810 C   0  0  0  0  0  0  0  0  0  0  0  0
    3.2900   -3.9240    1.6960 C   0  0  0  0  0  0  0  0  0  0  0  0
    4.6270   -3.6670    2.0640 C   0  0  0  0  0  0  0  0  0  0  0  0
    5.2650   -2.4860    1.6980 C   0  0  0  0  0  0  0  0  0  0  0  0
    4.5820   -1.5410    0.9450 C   0  0  0  0  0  0  0  0  0  0  0  0
   -2.4480   -1.6810   -2.5410 C   0  0  0  0  0  0  0  0  0  0  0  0
   -3.0240   -0.7060   -3.3490 C   0  0  0  0  0  0  0  0  0  0  0  0
   -2.3730    0.4970   -3.5830 C   0  0  0  0  0  0  0  0  0  0  0  0
   -1.1250    0.7240   -2.9980 C   0  0  0  0  0  0  0  0  0  0  0  0
    0.5690   -4.4440    0.7870 C   0  0  0  0  0  0  0  0  0  0  0  0
    1.0380   -4.9760    2.1550 C   0  0  2  0  0  0  0  0  0  0  0  0
    2.5840   -5.2230    2.1560 C   0  0  1  0  0  0  0  0  0  0  0  0
   -4.2440   -0.9730   -3.8960 O   0  0  0  0  0  0  0  0  0  0  0  0
    2.9970   -6.3660    1.2100 C   0  0  0  0  0  0  0  0  0  0  0  0
    0.1490   -6.1870    2.5650 C   0  0  0  0  0  0  0  0  0  0  0  0
    3.0170   -5.5960    3.6000 C   0  0  0  0  0  0  0  0  0  0  0  0
   -1.1340    1.2560    4.0630 H   0  0  0  0  0  0  0  0  0  0  0  0
   -4.7340    1.8440   -0.0120 H   0  0  0  0  0  0  0  0  0  0  0  0
   -2.0480    3.5250    2.7500 H   0  0  0  0  0  0  0  0  0  0  0  0
   -0.4240   -3.3530    4.7070 H   0  0  0  0  0  0  0  0  0  0  0  0
   -0.3960   -0.9490    4.8450 H   0  0  0  0  0  0  0  0  0  0  0  0
   -3.0670   -6.5000    2.0180 H   0  0  0  0  0  0  0  0  0  0  0  0
   -5.4490   -0.5940    0.4170 H   0  0  0  0  0  0  0  0  0  0  0  0
   -4.0020   -1.3150   -0.2780 H   0  0  0  0  0  0  0  0  0  0  0  0
   -5.8030   -2.4550    1.9000 H   0  0  0  0  0  0  0  0  0  0  0  0
   -5.4850   -3.1250    0.2990 H   0  0  0  0  0  0  0  0  0  0  0  0
   -3.2960    5.2580    1.3190 H   0  0  0  0  0  0  0  0  0  0  0  0
   -4.4500    4.6620    0.1230 H   0  0  0  0  0  0  0  0  0  0  0  0
   -1.4730   -6.7620    3.8710 H   0  0  0  0  0  0  0  0  0  0  0  0
   -0.5280   -5.4510    4.4990 H   0  0  0  0  0  0  0  0  0  0  0  0
   -3.9710    6.8640   -0.4290 H   0  0  0  0  0  0  0  0  0  0  0  0
   -3.6460    8.9890   -1.5860 H   0  0  0  0  0  0  0  0  0  0  0  0
   -0.2150    4.1140   -1.9400 H   0  0  0  0  0  0  0  0  0  0  0  0
    0.2670    8.5050   -4.1710 H   0  0  0  0  0  0  0  0  0  0  0  0
   -1.7360    9.3240   -3.0880 H   0  0  0  0  0  0  0  0  0  0  0  0
    1.7960    3.3020   -3.0720 H   0  0  0  0  0  0  0  0  0  0  0  0
    3.6780    3.6950   -4.6090 H   0  0  0  0  0  0  0  0  0  0  0  0
    3.9320    5.8950   -5.7310 H   0  0  0  0  0  0  0  0  0  0  0  0
    2.3150    7.7010   -5.2960 H   0  0  0  0  0  0  0  0  0  0  0  0
   -1.4180    4.3290   -0.0680 H   0  0  0  0  0  0  0  0  0  0  0  0
   -2.5830    3.8260   -1.3030 H   0  0  0  0  0  0  0  0  0  0  0  0
    3.1430    0.1000   -0.5230 H   0  0  0  0  0  0  0  0  0  0  0  0
   -1.1640   -3.3390   -0.9160 H   0  0  0  0  0  0  0  0  0  0  0  0
    1.2720    0.8670   -1.8000 H   0  0  0  0  0  0  0  0  0  0  0  0
    5.1990   -4.3860    2.6420 H   0  0  0  0  0  0  0  0  0  0  0  0
    6.2920   -2.3020    2.0050 H   0  0  0  0  0  0  0  0  0  0  0  0
    5.0960   -0.6200    0.6760 H   0  0  0  0  0  0  0  0  0  0  0  0
   -2.9830   -2.6130   -2.3760 H   0  0  0  0  0  0  0  0  0  0  0  0
   -2.8140    1.2660   -4.2090 H   0  0  0  0  0  0  0  0  0  0  0  0
   -0.6230    1.6700   -3.1900 H   0  0  0  0  0  0  0  0  0  0  0  0
   -0.5010   -4.2470    0.8600 H   0  0  0  0  0  0  0  0  0  0  0  0
    0.7050   -5.1900   -0.0040 H   0  0  0  0  0  0  0  0  0  0  0  0
    0.8720   -4.1810    2.8920 H   0  0  0  0  0  0  0  0  0  0  0  0
   -4.4990   -0.2240   -4.4610 H   0  0  0  0  0  0  0  0  0  0  0  0
    2.4910   -7.3030    1.4620 H   0  0  0  0  0  0  0  0  0  0  0  0
    2.7760   -6.1370    0.1620 H   0  0  0  0  0  0  0  0  0  0  0  0
    4.0750   -6.5550    1.2690 H   0  0  0  0  0  0  0  0  0  0  0  0
    0.7460   -6.9770    3.0270 H   0  0  0  0  0  0  0  0  0  0  0  0
   -0.2920   -6.6520    1.6750 H   0  0  0  0  0  0  0  0  0  0  0  0
    2.4910   -6.4730    3.9840 H   0  0  0  0  0  0  0  0  0  0  0  0
    4.0800   -5.8530    3.6600 H   0  0  0  0  0  0  0  0  0  0  0  0
    2.8320   -4.7700    4.2950 H   0  0  0  0  0  0  0  0  0  0  0  0
  1  2  1  0
  1  4  2  0
  1 10  1  0
  2  5  2  0
  2 13  1  0
  3  6  2  0
  3  7  1  0
  3 20  1  0
  4  8  1  0
  4 18  1  0
  5  9  1  0
  5 62  1  0
  6  8  1  0
  6 63  1  0
  7  9  1  0
  7 64  1  0
  8  9  2  0
 10 11  2  0
 10 14  1  0
 11 12  1  0
 11 17  1  0
 12 13  2  0
 12 65  1  0
 13 66  1  0
 14 15  2  0
 14 19  1  0
 15 16  1  0
 16 17  2  0
 16 67  1  0
 17 21  1  0
 18 19  1  0
 18 68  1  0
 18 69  1  0
 19 70  1  0
 19 71  1  0
 20 36  1  0
 20 72  1  0
 20 73  1  0
 21 60  1  0
 21 74  1  0
 21 75  1  0
 22 23  1  0
 22 26  2  0
 22 32  1  0
 23 27  2  0
 23 35  1  0
 24 25  2  0
 24 28  1  0
 24 76  1  0
 25 29  1  0
 25 77  1  0
 26 30  1  0
 26 78  1  0
 27 31  1  0
 27 79  1  0
 28 30  2  0
 28 36  1  0
 29 31  2  0
 29 80  1  0
 30 31  1  0
 32 33  2  0
 32 81  1  0
 33 34  1  0
 33 82  1  0
 34 35  2  0
 34 83  1  0
 35 84  1  0
 36 85  1  0
 36 86  1  0
 37 38  1  0
 37 41  2  0
 37 47  1  0
 38 42  2  0
 38 50  1  0
 39 40  2  0
 39 43  1  0
 39 51  1  0
 40 44  1  0
 40 54  1  0
 41 45  1  0
 41 55  1  0
 42 46  1  0
 42 87  1  0
 43 45  2  0
 43 88  1  0
 44 46  2  0
 44 89  1  0
 45 46  1  0
 47 48  2  0
 47 57  1  0
 48 49  1  0
 48 90  1  0
 49 50  2  0
 49 91  1  0
 50 92  1  0
 51 52  2  0
 51 93  1  0
 52 53  1  0
 52 58  1  0
 53 54  2  0
 53 94  1  0
 54 95  1  0
 55 56  1  0
 55 96  1  0
 55 97  1  0
 56 57  1  0
 56 60  1  0
 56 98  1  1
 57 59  1  6
 57 61  1  0
 58 99  1  0
 59100  1  0
 59101  1  0
 59102  1  0
 60103  1  0
 60104  1  0
 61105  1  0
 61106  1  0
 61107  1  0
M  END
