
     RDKit          3D

224243  0  0  0  0  0  0  0  0999 V2000
    2.6530    4.5890   -4.7020 C   0  0  0  0  0  0  0  0  0  0  0  0
    3.2010    3.3740   -5.2010 C   0  0  0  0  0  0  0  0  0  0  0  0
   -1.7180    2.2130   -3.9800 C   0  0  0  0  0  0  0  0  0  0  0  0
   -1.1090    1.0680   -4.4510 C   0  0  0  0  0  0  0  0  0  0  0  0
    1.2410    4.6600   -4.4500 C   0  0  0  0  0  0  0  0  0  0  0  0
    2.3240    2.2850   -5.5210 C   0  0  0  0  0  0  0  0  0  0  0  0
   -0.9990    3.4120   -4.1090 C   0  0  0  0  0  0  0  0  0  0  0  0
    0.1880    1.1160   -4.9520 C   0  0  0  0  0  0  0  0  0  0  0  0
    0.3890    3.4870   -4.5270 C   0  0  0  0  0  0  0  0  0  0  0  0
    0.9750    2.2870   -5.0250 C   0  0  0  0  0  0  0  0  0  0  0  0
    3.5360    5.6870   -4.4460 C   0  0  0  0  0  0  0  0  0  0  0  0
    4.9280    5.5410   -4.5650 C   0  0  0  0  0  0  0  0  0  0  0  0
    5.4460    4.3700   -5.0760 C   0  0  0  0  0  0  0  0  0  0  0  0
    4.6190    3.2770   -5.3750 C   0  0  0  0  0  0  0  0  0  0  0  0
    0.6580    6.0120   -4.0140 C   0  0  1  0  0  0  0  0  0  0  0  0
    1.6730    6.9130   -3.3090 C   0  0  0  0  0  0  0  0  0  0  0  0
    3.0100    7.0390   -4.0150 C   0  0  2  0  0  0  0  0  0  0  0  0
    2.9190    1.2410   -6.5190 C   0  0  1  0  0  0  0  0  0  0  0  0
    4.3030    0.8350   -5.9730 C   0  0  0  0  0  0  0  0  0  0  0  0
    5.3140    1.9770   -5.7910 C   0  0  1  0  0  0  0  0  0  0  0  0
   -1.6800    4.5600   -3.7830 O   0  0  0  0  0  0  0  0  0  0  0  0
    5.7350    6.5630   -4.1290 O   0  0  0  0  0  0  0  0  0  0  0  0
   -0.0340    6.7140   -5.1870 C   0  0  0  0  0  0  0  0  0  0  0  0
    2.2140   -0.1050   -6.8150 C   0  0  0  0  0  0  0  0  0  0  0  0
    3.0170    8.0390   -5.1770 C   0  0  0  0  0  0  0  0  0  0  0  0
    6.1550    2.1670   -7.0770 C   0  0  0  0  0  0  0  0  0  0  0  0
    6.2970    1.5230   -4.6740 C   0  0  0  0  0  0  0  0  0  0  0  0
    2.9880    1.9310   -7.9110 C   0  0  0  0  0  0  0  0  0  0  0  0
   -3.0720    2.1200   -3.2910 C   0  0  0  0  0  0  0  0  0  0  0  0
   -5.6340   -0.1740   -0.0890 C   0  0  0  0  0  0  0  0  0  0  0  0
   -4.3850    0.1460   -0.6880 C   0  0  0  0  0  0  0  0  0  0  0  0
   -7.6950   -0.0500   -4.5700 C   0  0  0  0  0  0  0  0  0  0  0  0
   -6.4600    0.3870   -5.0590 C   0  0  0  0  0  0  0  0  0  0  0  0
   -6.7970   -0.1990   -0.9020 C   0  0  0  0  0  0  0  0  0  0  0  0
   -4.3940    0.5300   -2.0750 C   0  0  0  0  0  0  0  0  0  0  0  0
   -7.8160   -0.2070   -3.1870 C   0  0  0  0  0  0  0  0  0  0  0  0
   -5.4250    0.6210   -4.2420 N   0  0  0  0  0  0  0  0  0  0  0  0
   -6.7270    0.0100   -2.3130 C   0  0  0  0  0  0  0  0  0  0  0  0
   -5.5230    0.4120   -2.9050 C   0  0  0  0  0  0  0  0  0  0  0  0
   -5.6920   -0.5230    1.2950 C   0  0  0  0  0  0  0  0  0  0  0  0
   -4.4980   -0.6440    2.0340 C   0  0  0  0  0  0  0  0  0  0  0  0
   -3.2440   -0.4050    1.4810 C   0  0  0  0  0  0  0  0  0  0  0  0
   -3.2100    0.0280    0.1350 C   0  0  0  0  0  0  0  0  0  0  0  0
   -8.7510   -0.3460   -5.4510 C   0  0  0  0  0  0  0  0  0  0  0  0
   -8.5560   -0.2140   -6.8240 C   0  0  0  0  0  0  0  0  0  0  0  0
   -7.3440    0.2530   -7.3260 C   0  0  0  0  0  0  0  0  0  0  0  0
   -6.3110    0.5560   -6.4320 C   0  0  0  0  0  0  0  0  0  0  0  0
   -8.1250   -0.5780   -0.2820 C   0  0  0  0  0  0  0  0  0  0  0  0
   -8.2160   -0.2440    1.2060 C   0  0  2  0  0  0  0  0  0  0  0  0
   -7.0290   -0.8670    2.0010 C   0  0  2  0  0  0  0  0  0  0  0  0
   -9.6150   -0.6480   -7.7520 C   0  0  0  0  0  0  0  0  0  0  0  0
  -10.4970    0.1400   -8.0780 O   0  0  0  0  0  0  0  0  0  0  0  0
   -9.5540   -2.0820   -8.2250 C   0  0  0  0  0  0  0  0  0  0  0  0
   -1.8620    0.2540   -0.4380 C   0  0  0  0  0  0  0  0  0  0  0  0
   -1.2680   -0.6870   -0.9520 O   0  0  0  0  0  0  0  0  0  0  0  0
   -1.2600    1.6250   -0.2670 C   0  0  0  0  0  0  0  0  0  0  0  0
   -3.1750    0.8400   -2.6500 O   0  0  0  0  0  0  0  0  0  0  0  0
   -7.0760   -0.2850    3.4410 C   0  0  0  0  0  0  0  0  0  0  0  0
  -10.5830   -2.9390   -7.5060 C   0  0  0  0  0  0  0  0  0  0  0  0
   -9.6160   -0.6420    1.7000 C   0  0  0  0  0  0  0  0  0  0  0  0
   -7.1290   -2.4060    2.0980 C   0  0  0  0  0  0  0  0  0  0  0  0
   -1.9680   -0.6090    2.2940 C   0  0  0  0  0  0  0  0  0  0  0  0
    0.4260   -7.9030    5.8370 C   0  0  0  0  0  0  0  0  0  0  0  0
   -0.2800   -8.9900    5.2840 C   0  0  0  0  0  0  0  0  0  0  0  0
    1.7530  -11.3480    8.7610 C   0  0  0  0  0  0  0  0  0  0  0  0
    1.2290   -8.1440    7.0090 C   0  0  0  0  0  0  0  0  0  0  0  0
   -0.1430  -10.2810    5.8000 C   0  0  0  0  0  0  0  0  0  0  0  0
    2.0080  -10.0210    8.7350 C   0  0  0  0  0  0  0  0  0  0  0  0
    0.9100  -11.8010    7.5910 C   0  0  1  0  0  0  0  0  0  0  0  0
    1.3340   -9.4390    7.5480 C   0  0  0  0  0  0  0  0  0  0  0  0
    0.6640  -10.4880    6.9050 C   0  0  0  0  0  0  0  0  0  0  0  0
    0.2920   -6.6150    5.2220 C   0  0  0  0  0  0  0  0  0  0  0  0
   -0.5990   -6.3800    4.1130 C   0  0  0  0  0  0  0  0  0  0  0  0
   -1.3660   -7.5090    3.6700 C   0  0  0  0  0  0  0  0  0  0  0  0
   -1.1510   -8.7830    4.2240 C   0  0  0  0  0  0  0  0  0  0  0  0
    1.0930   -5.5540    5.7070 C   0  0  0  0  0  0  0  0  0  0  0  0
    0.9970   -4.2630    5.1840 C   0  0  0  0  0  0  0  0  0  0  0  0
    0.1320   -4.0090    4.1320 C   0  0  0  0  0  0  0  0  0  0  0  0
   -0.6240   -5.0450    3.5410 C   0  0  0  0  0  0  0  0  0  0  0  0
    1.8300   -6.9350    7.6810 C   0  0  0  0  0  0  0  0  0  0  0  0
    2.1940   -5.8370    6.6950 C   0  0  0  0  0  0  0  0  0  0  0  0
    0.1210   -2.6150    3.6290 C   0  0  0  0  0  0  0  0  0  0  0  0
    0.8440   -2.3110    2.6870 O   0  0  0  0  0  0  0  0  0  0  0  0
   -0.7780   -1.6200    4.3370 C   0  0  0  0  0  0  0  0  0  0  0  0
   -2.1060   -1.3870    3.6170 C   0  0  0  0  0  0  0  0  0  0  0  0
    2.8220   -9.2750    9.7430 C   0  0  0  0  0  0  0  0  0  0  0  0
    4.2870   -9.1860    9.3270 C   0  0  0  0  0  0  0  0  0  0  0  0
    1.6350  -12.7960    6.6880 C   0  0  0  0  0  0  0  0  0  0  0  0
   -2.4430   -7.4620    2.6130 C   0  0  0  0  0  0  0  0  0  0  0  0
    2.1910  -12.3620    9.7680 C   0  0  0  0  0  0  0  0  0  0  0  0
   -1.3910   -4.7200    2.2780 C   0  0  0  0  0  0  0  0  0  0  0  0
    3.5320    9.1660   -0.0460 C   0  0  0  0  0  0  0  0  0  0  0  0
    4.4420    9.4230   -1.1070 C   0  0  0  0  0  0  0  0  0  0  0  0
    6.2640    5.4240    0.4610 C   0  0  0  0  0  0  0  0  0  0  0  0
    3.6790    7.9910    0.7360 C   0  0  0  0  0  0  0  0  0  0  0  0
    5.4760    8.5240   -1.3970 C   0  0  0  0  0  0  0  0  0  0  0  0
    5.1820    5.9050    1.1030 C   0  0  0  0  0  0  0  0  0  0  0  0
    6.6200    6.2650   -0.7680 C   0  0  2  0  0  0  0  0  0  0  0  0
    4.7330    7.1190    0.4280 C   0  0  0  0  0  0  0  0  0  0  0  0
    5.5970    7.3670   -0.6460 C   0  0  0  0  0  0  0  0  0  0  0  0
    2.4940   10.1000    0.2390 C   0  0  0  0  0  0  0  0  0  0  0  0
    2.3530   11.2830   -0.5390 C   0  0  0  0  0  0  0  0  0  0  0  0
    3.2810   11.4970   -1.5830 C   0  0  0  0  0  0  0  0  0  0  0  0
    4.2980   10.5860   -1.8640 C   0  0  0  0  0  0  0  0  0  0  0  0
    1.6060    9.8470    1.3150 C   0  0  0  0  0  0  0  0  0  0  0  0
    0.6050   10.7860    1.6160 C   0  0  0  0  0  0  0  0  0  0  0  0
    0.4530   11.9560    0.8660 C   0  0  0  0  0  0  0  0  0  0  0  0
    1.3090   12.1960   -0.2150 C   0  0  0  0  0  0  0  0  0  0  0  0
    1.7590    8.6660    2.0590 C   0  0  0  0  0  0  0  0  0  0  0  0
    2.7760    7.7540    1.7840 C   0  0  0  0  0  0  0  0  0  0  0  0
    1.1470   13.4160   -1.0280 C   0  0  0  0  0  0  0  0  0  0  0  0
    0.9890   14.5140   -0.5150 O   0  0  0  0  0  0  0  0  0  0  0  0
   -0.6540   12.8720    1.2400 C   0  0  0  0  0  0  0  0  0  0  0  0
   -1.2550   12.7490    2.3000 O   0  0  0  0  0  0  0  0  0  0  0  0
    0.8890    8.4060    3.0870 O   0  0  0  0  0  0  0  0  0  0  0  0
    6.5210    5.4210   -2.0530 C   0  0  0  0  0  0  0  0  0  0  0  0
    7.1110    4.2450    0.8430 C   0  0  0  0  0  0  0  0  0  0  0  0
    6.7710    3.5900    2.1790 C   0  0  0  0  0  0  0  0  0  0  0  0
    6.8770    6.1640   -3.3510 C   0  0  0  0  0  0  0  0  0  0  0  0
   -1.6050    0.1000   -4.3710 H   0  0  0  0  0  0  0  0  0  0  0  0
    0.5930    0.1400   -5.1700 H   0  0  0  0  0  0  0  0  0  0  0  0
    6.5180    4.2770   -5.2140 H   0  0  0  0  0  0  0  0  0  0  0  0
   -0.0680    5.8500   -3.2190 H   0  0  0  0  0  0  0  0  0  0  0  0
    1.8690    6.4750   -2.3170 H   0  0  0  0  0  0  0  0  0  0  0  0
    1.2420    7.9020   -3.1090 H   0  0  0  0  0  0  0  0  0  0  0  0
    3.6830    7.4470   -3.2540 H   0  0  0  0  0  0  0  0  0  0  0  0
    4.7520    0.0520   -6.6000 H   0  0  0  0  0  0  0  0  0  0  0  0
    4.1310    0.3530   -4.9990 H   0  0  0  0  0  0  0  0  0  0  0  0
   -2.5900    4.4780   -4.1160 H   0  0  0  0  0  0  0  0  0  0  0  0
   -0.3700    7.7180   -4.9060 H   0  0  0  0  0  0  0  0  0  0  0  0
    0.6130    6.7970   -6.0640 H   0  0  0  0  0  0  0  0  0  0  0  0
   -0.9160    6.1570   -5.5250 H   0  0  0  0  0  0  0  0  0  0  0  0
    1.2020    0.0330   -7.2090 H   0  0  0  0  0  0  0  0  0  0  0  0
    2.1930   -0.7580   -5.9370 H   0  0  0  0  0  0  0  0  0  0  0  0
    2.7630   -0.6650   -7.5860 H   0  0  0  0  0  0  0  0  0  0  0  0
    2.5580    8.9880   -4.8820 H   0  0  0  0  0  0  0  0  0  0  0  0
    4.0440    8.2550   -5.4940 H   0  0  0  0  0  0  0  0  0  0  0  0
    2.5030    7.6600   -6.0610 H   0  0  0  0  0  0  0  0  0  0  0  0
    6.9880    2.8630   -6.9230 H   0  0  0  0  0  0  0  0  0  0  0  0
    5.5730    2.5630   -7.9100 H   0  0  0  0  0  0  0  0  0  0  0  0
    6.5990    1.2190   -7.4020 H   0  0  0  0  0  0  0  0  0  0  0  0
    6.6970    0.5230   -4.8880 H   0  0  0  0  0  0  0  0  0  0  0  0
    7.1570    2.1950   -4.5780 H   0  0  0  0  0  0  0  0  0  0  0  0
    5.8020    1.4820   -3.6970 H   0  0  0  0  0  0  0  0  0  0  0  0
    3.5850    1.3360   -8.6130 H   0  0  0  0  0  0  0  0  0  0  0  0
    1.9830    2.0370   -8.3390 H   0  0  0  0  0  0  0  0  0  0  0  0
    3.4080    2.9370   -7.8880 H   0  0  0  0  0  0  0  0  0  0  0  0
   -3.1330    2.8830   -2.5070 H   0  0  0  0  0  0  0  0  0  0  0  0
   -3.8460    2.3080   -4.0400 H   0  0  0  0  0  0  0  0  0  0  0  0
   -8.7680   -0.5620   -2.8030 H   0  0  0  0  0  0  0  0  0  0  0  0
   -4.5570   -0.9840    3.0650 H   0  0  0  0  0  0  0  0  0  0  0  0
   -9.7060   -0.7040   -5.0690 H   0  0  0  0  0  0  0  0  0  0  0  0
   -7.1960    0.3800   -8.3940 H   0  0  0  0  0  0  0  0  0  0  0  0
   -5.3540    0.9010   -6.8160 H   0  0  0  0  0  0  0  0  0  0  0  0
   -8.3090   -1.6430   -0.4640 H   0  0  0  0  0  0  0  0  0  0  0  0
   -8.9280   -0.0160   -0.7730 H   0  0  0  0  0  0  0  0  0  0  0  0
   -8.1420    0.8500    1.2990 H   0  0  0  0  0  0  0  0  0  0  0  0
   -8.5490   -2.4870   -8.0580 H   0  0  0  0  0  0  0  0  0  0  0  0
   -9.7300   -2.0960   -9.3070 H   0  0  0  0  0  0  0  0  0  0  0  0
   -0.5560    1.6130    0.5690 H   0  0  0  0  0  0  0  0  0  0  0  0
   -2.0370    2.3730   -0.0750 H   0  0  0  0  0  0  0  0  0  0  0  0
   -0.7420    1.9030   -1.1860 H   0  0  0  0  0  0  0  0  0  0  0  0
   -6.3120   -0.7080    4.1000 H   0  0  0  0  0  0  0  0  0  0  0  0
   -6.9360    0.8020    3.4270 H   0  0  0  0  0  0  0  0  0  0  0  0
   -8.0300   -0.4940    3.9340 H   0  0  0  0  0  0  0  0  0  0  0  0
  -10.4510   -2.8890   -6.4220 H   0  0  0  0  0  0  0  0  0  0  0  0
  -11.5990   -2.6070   -7.7370 H   0  0  0  0  0  0  0  0  0  0  0  0
  -10.4840   -3.9820   -7.8160 H   0  0  0  0  0  0  0  0  0  0  0  0
   -9.7780   -0.3770    2.7470 H   0  0  0  0  0  0  0  0  0  0  0  0
   -9.8000   -1.7140    1.5870 H   0  0  0  0  0  0  0  0  0  0  0  0
  -10.3850   -0.1200    1.1220 H   0  0  0  0  0  0  0  0  0  0  0  0
   -7.1150   -2.8810    1.1110 H   0  0  0  0  0  0  0  0  0  0  0  0
   -8.0430   -2.7220    2.6130 H   0  0  0  0  0  0  0  0  0  0  0  0
   -6.2880   -2.8290    2.6620 H   0  0  0  0  0  0  0  0  0  0  0  0
   -1.2460   -1.1390    1.6650 H   0  0  0  0  0  0  0  0  0  0  0  0
   -1.5510    0.3810    2.5170 H   0  0  0  0  0  0  0  0  0  0  0  0
   -0.6750  -11.1220    5.3600 H   0  0  0  0  0  0  0  0  0  0  0  0
   -0.0400  -12.2150    7.9510 H   0  0  0  0  0  0  0  0  0  0  0  0
   -1.7150   -9.6310    3.8360 H   0  0  0  0  0  0  0  0  0  0  0  0
    1.6360   -3.4690    5.5650 H   0  0  0  0  0  0  0  0  0  0  0  0
    1.1050   -6.5570    8.4140 H   0  0  0  0  0  0  0  0  0  0  0  0
    2.7510   -7.1800    8.2080 H   0  0  0  0  0  0  0  0  0  0  0  0
    3.0820   -6.1360    6.1210 H   0  0  0  0  0  0  0  0  0  0  0  0
    2.4650   -4.9330    7.2510 H   0  0  0  0  0  0  0  0  0  0  0  0
   -0.2230   -0.6820    4.4540 H   0  0  0  0  0  0  0  0  0  0  0  0
   -0.9800   -1.9860    5.3510 H   0  0  0  0  0  0  0  0  0  0  0  0
   -2.5990   -2.3470    3.4340 H   0  0  0  0  0  0  0  0  0  0  0  0
   -2.7500   -0.8190    4.2990 H   0  0  0  0  0  0  0  0  0  0  0  0
    2.7820   -9.7750   10.7200 H   0  0  0  0  0  0  0  0  0  0  0  0
    2.4000   -8.2860    9.9370 H   0  0  0  0  0  0  0  0  0  0  0  0
    4.7430  -10.1810    9.3030 H   0  0  0  0  0  0  0  0  0  0  0  0
    4.8460   -8.5790   10.0460 H   0  0  0  0  0  0  0  0  0  0  0  0
    4.4090   -8.7360    8.3380 H   0  0  0  0  0  0  0  0  0  0  0  0
    2.6020  -12.4090    6.3490 H   0  0  0  0  0  0  0  0  0  0  0  0
    1.0420  -13.0250    5.7960 H   0  0  0  0  0  0  0  0  0  0  0  0
    1.8190  -13.7370    7.2120 H   0  0  0  0  0  0  0  0  0  0  0  0
   -2.0100   -7.3540    1.6150 H   0  0  0  0  0  0  0  0  0  0  0  0
   -3.0340   -8.3870    2.5970 H   0  0  0  0  0  0  0  0  0  0  0  0
   -3.1630   -6.6690    2.8270 H   0  0  0  0  0  0  0  0  0  0  0  0
    1.3350  -12.9640   10.0910 H   0  0  0  0  0  0  0  0  0  0  0  0
    2.6230  -11.9150   10.6650 H   0  0  0  0  0  0  0  0  0  0  0  0
    2.9400  -13.0330    9.3350 H   0  0  0  0  0  0  0  0  0  0  0  0
   -1.1470   -5.4350    1.4890 H   0  0  0  0  0  0  0  0  0  0  0  0
   -1.1280   -3.7490    1.8490 H   0  0  0  0  0  0  0  0  0  0  0  0
   -2.4650   -4.6930    2.4730 H   0  0  0  0  0  0  0  0  0  0  0  0
    6.1730    8.7260   -2.2040 H   0  0  0  0  0  0  0  0  0  0  0  0
    4.7300    5.5050    1.9960 H   0  0  0  0  0  0  0  0  0  0  0  0
    7.6300    6.6800   -0.6450 H   0  0  0  0  0  0  0  0  0  0  0  0
    3.2490   12.3950   -2.1950 H   0  0  0  0  0  0  0  0  0  0  0  0
    4.9900   10.8030   -2.6760 H   0  0  0  0  0  0  0  0  0  0  0  0
   -0.0750   10.5970    2.4470 H   0  0  0  0  0  0  0  0  0  0  0  0
    2.8660    6.8540    2.3830 H   0  0  0  0  0  0  0  0  0  0  0  0
    1.2090   13.2960   -2.1230 H   0  0  0  0  0  0  0  0  0  0  0  0
   -0.9350   13.6690    0.5330 H   0  0  0  0  0  0  0  0  0  0  0  0
    1.0790    7.5250    3.4480 H   0  0  0  0  0  0  0  0  0  0  0  0
    5.5290    4.9610   -2.1120 H   0  0  0  0  0  0  0  0  0  0  0  0
    7.2440    4.6000   -1.9630 H   0  0  0  0  0  0  0  0  0  0  0  0
    7.0380    3.4780    0.0640 H   0  0  0  0  0  0  0  0  0  0  0  0
    8.1560    4.5680    0.8830 H   0  0  0  0  0  0  0  0  0  0  0  0
    6.8430    4.3060    3.0060 H   0  0  0  0  0  0  0  0  0  0  0  0
    7.4720    2.7770    2.3850 H   0  0  0  0  0  0  0  0  0  0  0  0
    5.7630    3.1670    2.1710 H   0  0  0  0  0  0  0  0  0  0  0  0
    7.5590    5.5650   -3.9650 H   0  0  0  0  0  0  0  0  0  0  0  0
    7.4490    7.0720   -3.1250 H   0  0  0  0  0  0  0  0  0  0  0  0
  1  2  1  0
  1  5  2  0
  1 11  1  0
  2  6  2  0
  2 14  1  0
  3  4  2  0
  3  7  1  0
  3 29  1  0
  4  8  1  0
  4120  1  0
  5  9  1  0
  5 15  1  0
  6 10  1  0
  6 18  1  0
  7  9  2  0
  7 21  1  0
  8 10  2  0
  8121  1  0
  9 10  1  0
 11 12  2  0
 11 17  1  0
 12 13  1  0
 12 22  1  0
 13 14  2  0
 13122  1  0
 14 20  1  0
 15 16  1  0
 15 23  1  0
 15123  1  1
 16 17  1  0
 16124  1  0
 16125  1  0
 17 25  1  0
 17126  1  1
 18 19  1  0
 18 24  1  6
 18 28  1  0
 19 20  1  0
 19127  1  0
 19128  1  0
 20 26  1  6
 20 27  1  0
 21129  1  0
 22119  1  0
 23130  1  0
 23131  1  0
 23132  1  0
 24133  1  0
 24134  1  0
 24135  1  0
 25136  1  0
 25137  1  0
 25138  1  0
 26139  1  0
 26140  1  0
 26141  1  0
 27142  1  0
 27143  1  0
 27144  1  0
 28145  1  0
 28146  1  0
 28147  1  0
 29 57  1  0
 29148  1  0
 29149  1  0
 30 31  2  0
 30 34  1  0
 30 40  1  0
 31 35  1  0
 31 43  1  0
 32 33  1  0
 32 36  2  0
 32 44  1  0
 33 37  2  0
 33 47  1  0
 34 38  2  0
 34 48  1  0
 35 39  2  0
 35 57  1  0
 36 38  1  0
 36150  1  0
 37 39  1  0
 38 39  1  0
 40 41  2  0
 40 50  1  0
 41 42  1  0
 41151  1  0
 42 43  2  0
 42 62  1  0
 43 54  1  0
 44 45  2  0
 44152  1  0
 45 46  1  0
 45 51  1  0
 46 47  2  0
 46153  1  0
 47154  1  0
 48 49  1  0
 48155  1  0
 48156  1  0
 49 50  1  0
 49 60  1  0
 49157  1  6
 50 58  1  1
 50 61  1  0
 51 52  2  0
 51 53  1  0
 53 59  1  0
 53158  1  0
 53159  1  0
 54 55  2  0
 54 56  1  0
 56160  1  0
 56161  1  0
 56162  1  0
 58163  1  0
 58164  1  0
 58165  1  0
 59166  1  0
 59167  1  0
 59168  1  0
 60169  1  0
 60170  1  0
 60171  1  0
 61172  1  0
 61173  1  0
 61174  1  0
 62 85  1  0
 62175  1  0
 62176  1  0
 63 64  2  0
 63 66  1  0
 63 72  1  0
 64 67  1  0
 64 75  1  0
 65 68  2  0
 65 69  1  0
 65 90  1  0
 66 70  2  0
 66 80  1  0
 67 71  2  0
 67177  1  0
 68 70  1  0
 68 86  1  0
 69 71  1  0
 69 88  1  0
 69178  1  1
 70 71  1  0
 72 73  2  0
 72 76  1  0
 73 74  1  0
 73 79  1  0
 74 75  2  0
 74 89  1  0
 75179  1  0
 76 77  2  0
 76 81  1  0
 77 78  1  0
 77180  1  0
 78 79  2  0
 78 82  1  0
 79 91  1  0
 80 81  1  0
 80181  1  0
 80182  1  0
 81183  1  0
 81184  1  0
 82 83  2  0
 82 84  1  0
 84 85  1  0
 84185  1  0
 84186  1  0
 85187  1  0
 85188  1  0
 86 87  1  0
 86189  1  0
 86190  1  0
 87191  1  0
 87192  1  0
 87193  1  0
 88194  1  0
 88195  1  0
 88196  1  0
 89197  1  0
 89198  1  0
 89199  1  0
 90200  1  0
 90201  1  0
 90202  1  0
 91203  1  0
 91204  1  0
 91205  1  0
 92 93  2  0
 92 95  1  0
 92101  1  0
 93 96  1  0
 93104  1  0
 94 97  2  0
 94 98  1  0
 94117  1  0
 95 99  2  0
 95110  1  0
 96100  2  0
 96206  1  0
 97 99  1  0
 97207  1  0
 98100  1  0
 98116  1  0
 98208  1  1
 99100  1  0
101102  2  0
101105  1  0
102103  1  0
102108  1  0
103104  2  0
103209  1  0
104210  1  0
105106  2  0
105109  1  0
106107  1  0
106211  1  0
107108  2  0
107113  1  0
108111  1  0
109110  2  0
109115  1  0
110212  1  0
111112  2  0
111213  1  0
113114  2  0
113214  1  0
115215  1  0
116119  1  0
116216  1  0
116217  1  0
117118  1  0
117218  1  0
117219  1  0
118220  1  0
118221  1  0
118222  1  0
119223  1  0
119224  1  0
M  END
