
     RDKit          3D

208233  0  0  0  0  0  0  0  0999 V2000
    3.0780   -2.2770    5.0590 C   0  0  0  0  0  0  0  0  0  0  0  0
   -4.8300    1.4210    3.7520 C   0  0  0  0  0  0  0  0  0  0  0  0
    2.7450   -1.2170    5.8740 C   0  0  0  0  0  0  0  0  0  0  0  0
   -4.7590    0.3180    2.8680 C   0  0  0  0  0  0  0  0  0  0  0  0
    2.3620   -2.4170    3.8050 C   0  0  0  0  0  0  0  0  0  0  0  0
   -3.7320    1.7020    4.6330 C   0  0  0  0  0  0  0  0  0  0  0  0
    1.7250   -0.3260    5.5090 C   0  0  0  0  0  0  0  0  0  0  0  0
   -3.5930   -0.4200    2.7880 C   0  0  0  0  0  0  0  0  0  0  0  0
    0.3060   -2.0110    2.5530 C   0  0  0  0  0  0  0  0  0  0  0  0
   -1.0110   -1.5660    2.5800 C   0  0  0  0  0  0  0  0  0  0  0  0
   -1.1840    1.0770    5.0950 C   0  0  0  0  0  0  0  0  0  0  0  0
    1.1750   -1.6950    3.5820 C   0  0  0  0  0  0  0  0  0  0  0  0
   -2.5630    0.9540    4.4760 C   0  0  0  0  0  0  0  0  0  0  0  0
    0.8590   -0.6270    4.4730 C   0  0  0  0  0  0  0  0  0  0  0  0
   -2.5220   -0.0160    3.5460 C   0  0  0  0  0  0  0  0  0  0  0  0
   -1.2960   -0.5670    3.4600 C   0  0  0  0  0  0  0  0  0  0  0  0
   -0.4170   -0.0350    4.3510 C   0  0  0  0  0  0  0  0  0  0  0  0
   -3.3600   -1.4320    1.8730 C   0  0  0  0  0  0  0  0  0  0  0  0
   -2.0510   -1.9470    1.7270 C   0  0  0  0  0  0  0  0  0  0  0  0
    3.9290   -3.2680    5.6070 C   0  0  0  0  0  0  0  0  0  0  0  0
    4.4670   -3.2030    6.9140 C   0  0  0  0  0  0  0  0  0  0  0  0
    4.1240   -2.0920    7.6960 C   0  0  0  0  0  0  0  0  0  0  0  0
    3.3580   -1.0580    7.1390 C   0  0  0  0  0  0  0  0  0  0  0  0
   -5.8930    2.2990    3.6230 C   0  0  0  0  0  0  0  0  0  0  0  0
   -6.8510    1.9900    2.6360 C   0  0  0  0  0  0  0  0  0  0  0  0
   -6.8630    0.8560    1.8730 N   0  0  0  0  0  0  0  0  0  0  0  0
   -5.8230    0.0450    1.9710 C   0  0  0  0  0  0  0  0  0  0  0  0
   -5.6660   -1.0640    1.1140 C   0  0  0  0  0  0  0  0  0  0  0  0
   -4.4750   -1.8180    1.1090 C   0  0  0  0  0  0  0  0  0  0  0  0
    4.4760   -4.2410    4.7820 C   0  0  0  0  0  0  0  0  0  0  0  0
    5.2800   -5.2640    5.3010 C   0  0  0  0  0  0  0  0  0  0  0  0
    5.6860   -5.2210    6.6300 C   0  0  0  0  0  0  0  0  0  0  0  0
    5.2070   -4.2310    7.4730 C   0  0  0  0  0  0  0  0  0  0  0  0
    2.8170   -3.6380    2.8880 C   0  0  1  0  0  0  0  0  0  0  0  0
    4.1930   -4.1910    3.3010 C   0  0  0  0  0  0  0  0  0  0  0  0
   -3.9830    2.7970    5.6480 C   0  0  2  0  0  0  0  0  0  0  0  0
   -4.5790    4.0070    4.9030 C   0  0  0  0  0  0  0  0  0  0  0  0
   -5.9270    3.6410    4.3200 C   0  0  2  0  0  0  0  0  0  0  0  0
    1.5010    0.9440    6.3990 C   0  0  0  0  0  0  0  0  0  0  0  0
    2.7110    1.2810    7.1730 C   0  0  0  0  0  0  0  0  0  0  0  0
    3.0580    0.1020    8.0370 C   0  0  0  0  0  0  0  0  0  0  0  0
   -4.3230   -3.0200    0.2270 C   0  0  0  0  0  0  0  0  0  0  0  0
   -3.8590   -4.0440    0.7930 O   0  0  0  0  0  0  0  0  0  0  0  0
   -4.4630   -2.9260   -1.2310 C   0  0  0  0  0  0  0  0  0  0  0  0
    5.5650   -4.3060    8.7750 O   0  0  0  0  0  0  0  0  0  0  0  0
    1.7170   -4.8500    2.9330 C   0  0  0  0  0  0  0  0  0  0  0  0
    1.7260   -5.7110    4.1620 C   0  0  0  0  0  0  0  0  0  0  0  0
   -5.2320   -4.1960   -1.7580 C   0  0  0  0  0  0  0  0  0  0  0  0
   -2.8210    3.2120    6.5530 C   0  0  0  0  0  0  0  0  0  0  0  0
   -7.0380    3.6770    5.4370 C   0  0  0  0  0  0  0  0  0  0  0  0
   -8.4350    3.7770    4.8970 C   0  0  0  0  0  0  0  0  0  0  0  0
    3.1350   -3.1390    1.4070 C   0  0  0  0  0  0  0  0  0  0  0  0
    2.7150   -2.8010   -4.4470 C   0  0  0  0  0  0  0  0  0  0  0  0
    2.9930   -3.1770   -5.7520 C   0  0  0  0  0  0  0  0  0  0  0  0
    6.4670   -5.1670   -3.4860 C   0  0  0  0  0  0  0  0  0  0  0  0
    3.3070   -3.5020   -3.4060 C   0  0  0  0  0  0  0  0  0  0  0  0
    3.9770   -4.1690   -6.0510 C   0  0  0  0  0  0  0  0  0  0  0  0
    5.5070   -4.4780   -2.8150 C   0  0  0  0  0  0  0  0  0  0  0  0
    6.0380   -5.3970   -4.9300 C   0  0  2  0  0  0  0  0  0  0  0  0
    4.4200   -4.2350   -3.7310 C   0  0  0  0  0  0  0  0  0  0  0  0
    4.7340   -4.6290   -4.9970 C   0  0  0  0  0  0  0  0  0  0  0  0
    2.1420   -1.5650   -4.1220 C   0  0  0  0  0  0  0  0  0  0  0  0
    1.9690   -0.6980   -5.2060 C   0  0  0  0  0  0  0  0  0  0  0  0
    1.9140   -1.1480   -6.4760 N   0  0  0  0  0  0  0  0  0  0  0  0
    2.4320   -2.3660   -6.7300 C   0  0  0  0  0  0  0  0  0  0  0  0
    2.0860   -1.1830   -2.7750 C   0  0  0  0  0  0  0  0  0  0  0  0
    1.9720    0.2010   -2.5060 C   0  0  0  0  0  0  0  0  0  0  0  0
    2.0550    1.1080   -3.5630 C   0  0  0  0  0  0  0  0  0  0  0  0
    1.9220    0.6590   -4.8700 C   0  0  0  0  0  0  0  0  0  0  0  0
    2.3330   -2.1410   -1.7890 C   0  0  0  0  0  0  0  0  0  0  0  0
    3.0500   -3.2840   -2.0880 C   0  0  0  0  0  0  0  0  0  0  0  0
    3.7330   -4.2620   -1.0860 C   0  0  2  0  0  0  0  0  0  0  0  0
    5.3080   -4.0470   -1.3200 C   0  0  2  0  0  0  0  0  0  0  0  0
    5.8080   -6.8780   -5.1720 C   0  0  0  0  0  0  0  0  0  0  0  0
    4.6990   -7.4060   -5.3080 O   0  0  0  0  0  0  0  0  0  0  0  0
    2.2470    0.6320   -1.1040 C   0  0  0  0  0  0  0  0  0  0  0  0
    1.5580    0.2470   -0.1420 O   0  0  0  0  0  0  0  0  0  0  0  0
    3.4970    1.4420   -0.9070 C   0  0  0  0  0  0  0  0  0  0  0  0
    2.0690    1.5530   -5.9410 O   0  0  0  0  0  0  0  0  0  0  0  0
    2.4360    2.4060   -3.2500 O   0  0  0  0  0  0  0  0  0  0  0  0
    5.6980   -2.5450   -1.2320 C   0  0  0  0  0  0  0  0  0  0  0  0
    3.3700   -5.7180   -1.4600 C   0  0  0  0  0  0  0  0  0  0  0  0
    6.1940   -4.9040   -0.4180 C   0  0  0  0  0  0  0  0  0  0  0  0
    3.1520   -4.3100    0.3950 C   0  0  0  0  0  0  0  0  0  0  0  0
   -3.1760    4.5230   -3.2990 C   0  0  0  0  0  0  0  0  0  0  0  0
   -3.1360    3.4950   -2.3660 C   0  0  0  0  0  0  0  0  0  0  0  0
   -1.7640    1.2810   -6.5830 C   0  0  0  0  0  0  0  0  0  0  0  0
   -2.4460    0.3760   -5.8250 C   0  0  0  0  0  0  0  0  0  0  0  0
   -2.8560    4.3020   -4.6240 C   0  0  0  0  0  0  0  0  0  0  0  0
   -3.0240    2.1720   -2.8890 C   0  0  0  0  0  0  0  0  0  0  0  0
   -1.8290    2.6440   -6.1810 C   0  0  0  0  0  0  0  0  0  0  0  0
   -2.9630    0.6620   -4.6410 N   0  0  0  0  0  0  0  0  0  0  0  0
   -2.5410    2.9650   -5.0710 C   0  0  0  0  0  0  0  0  0  0  0  0
   -2.8780    1.9370   -4.2210 C   0  0  0  0  0  0  0  0  0  0  0  0
   -3.6900    5.7670   -2.8600 C   0  0  0  0  0  0  0  0  0  0  0  0
   -3.7250    6.0670   -1.4860 C   0  0  0  0  0  0  0  0  0  0  0  0
   -3.3450    5.1030   -0.5520 C   0  0  0  0  0  0  0  0  0  0  0  0
   -3.1190    3.7650   -0.9660 C   0  0  0  0  0  0  0  0  0  0  0  0
   -0.8810    0.8510   -7.6030 C   0  0  0  0  0  0  0  0  0  0  0  0
   -0.9700   -0.4770   -8.0600 C   0  0  0  0  0  0  0  0  0  0  0  0
   -1.9030   -1.3300   -7.5200 C   0  0  0  0  0  0  0  0  0  0  0  0
   -2.6150   -0.9460   -6.3550 C   0  0  0  0  0  0  0  0  0  0  0  0
   -4.1100    6.6950   -3.7930 C   0  0  0  0  0  0  0  0  0  0  0  0
   -4.6610    7.9210   -3.3950 C   0  0  0  0  0  0  0  0  0  0  0  0
   -4.7500    8.2130   -2.0540 C   0  0  0  0  0  0  0  0  0  0  0  0
   -4.2800    7.3020   -1.1210 C   0  0  0  0  0  0  0  0  0  0  0  0
   -2.8890    5.4840   -5.5850 C   0  0  1  0  0  0  0  0  0  0  0  0
   -4.0960    6.3440   -5.2400 C   0  0  0  0  0  0  0  0  0  0  0  0
   -2.9850    0.9920   -1.9100 C   0  0  0  0  0  0  0  0  0  0  0  0
   -3.4350    1.3520   -0.5150 C   0  0  0  0  0  0  0  0  0  0  0  0
   -2.8290    2.6580   -0.0120 C   0  0  1  0  0  0  0  0  0  0  0  0
   -0.8860    3.5970   -6.9140 C   0  0  0  0  0  0  0  0  0  0  0  0
    0.4270    2.9400   -7.1990 C   0  0  2  0  0  0  0  0  0  0  0  0
    0.1670    1.7430   -8.1300 C   0  0  0  0  0  0  0  0  0  0  0  0
   -1.6950    6.3980   -5.3800 C   0  0  0  0  0  0  0  0  0  0  0  0
   -1.0870    6.9550   -6.3200 O   0  0  0  0  0  0  0  0  0  0  0  0
   -2.8970    5.6680    1.1270 S   0  0  0  0  0  0  0  0  0  0  0  0
   -1.3110    2.4850    0.2900 C   0  0  0  0  0  0  0  0  0  0  0  0
    1.0950    2.6080   -5.8320 C   0  0  0  0  0  0  0  0  0  0  0  0
    0.5190   -2.7490    1.7770 H   0  0  0  0  0  0  0  0  0  0  0  0
   -1.2440    0.8610    6.1580 H   0  0  0  0  0  0  0  0  0  0  0  0
   -0.7360    2.0410    4.8620 H   0  0  0  0  0  0  0  0  0  0  0  0
   -1.8300   -2.7100    0.9380 H   0  0  0  0  0  0  0  0  0  0  0  0
    4.5190   -2.0020    8.7000 H   0  0  0  0  0  0  0  0  0  0  0  0
   -7.5880    2.7600    2.3350 H   0  0  0  0  0  0  0  0  0  0  0  0
   -6.4970   -1.3260    0.4890 H   0  0  0  0  0  0  0  0  0  0  0  0
    5.7200   -5.9740    4.6380 H   0  0  0  0  0  0  0  0  0  0  0  0
    6.2870   -6.0550    7.0210 H   0  0  0  0  0  0  0  0  0  0  0  0
    4.3950   -5.1440    2.8550 H   0  0  0  0  0  0  0  0  0  0  0  0
    4.9200   -3.4780    2.9530 H   0  0  0  0  0  0  0  0  0  0  0  0
   -4.7170    2.4070    6.3410 H   0  0  0  0  0  0  0  0  0  0  0  0
   -3.8840    4.3110    4.0970 H   0  0  0  0  0  0  0  0  0  0  0  0
   -4.6770    4.8600    5.5810 H   0  0  0  0  0  0  0  0  0  0  0  0
   -6.1790    4.4020    3.5860 H   0  0  0  0  0  0  0  0  0  0  0  0
    1.2570    1.7770    5.7380 H   0  0  0  0  0  0  0  0  0  0  0  0
    0.6840    0.7310    7.0900 H   0  0  0  0  0  0  0  0  0  0  0  0
    2.4810    2.1450    7.7790 H   0  0  0  0  0  0  0  0  0  0  0  0
    3.5140    1.5300    6.4520 H   0  0  0  0  0  0  0  0  0  0  0  0
    3.8970    0.3460    8.6810 H   0  0  0  0  0  0  0  0  0  0  0  0
    2.2030   -0.1860    8.6290 H   0  0  0  0  0  0  0  0  0  0  0  0
   -4.9470   -2.0160   -1.5390 H   0  0  0  0  0  0  0  0  0  0  0  0
   -3.4310   -2.9410   -1.5960 H   0  0  0  0  0  0  0  0  0  0  0  0
    4.7530   -4.2600    9.3010 H   0  0  0  0  0  0  0  0  0  0  0  0
    1.8760   -5.4830    2.0900 H   0  0  0  0  0  0  0  0  0  0  0  0
    0.7050   -4.4580    2.8250 H   0  0  0  0  0  0  0  0  0  0  0  0
    2.7190   -6.1120    4.3830 H   0  0  0  0  0  0  0  0  0  0  0  0
    1.3090   -5.1910    5.0340 H   0  0  0  0  0  0  0  0  0  0  0  0
    1.1740   -6.6060    3.9360 H   0  0  0  0  0  0  0  0  0  0  0  0
   -6.0320   -3.8800   -2.4570 H   0  0  0  0  0  0  0  0  0  0  0  0
   -4.4470   -4.8140   -2.3040 H   0  0  0  0  0  0  0  0  0  0  0  0
   -5.6550   -4.7660   -0.9200 H   0  0  0  0  0  0  0  0  0  0  0  0
   -1.9390    3.5670    5.9950 H   0  0  0  0  0  0  0  0  0  0  0  0
   -2.5430    2.3780    7.1870 H   0  0  0  0  0  0  0  0  0  0  0  0
   -3.1290    4.0270    7.1830 H   0  0  0  0  0  0  0  0  0  0  0  0
   -6.9510    2.7780    6.0550 H   0  0  0  0  0  0  0  0  0  0  0  0
   -6.8390    4.5370    6.0830 H   0  0  0  0  0  0  0  0  0  0  0  0
   -8.7440    2.8510    4.4330 H   0  0  0  0  0  0  0  0  0  0  0  0
   -8.5110    4.5890    4.1610 H   0  0  0  0  0  0  0  0  0  0  0  0
   -9.0950    3.9820    5.7290 H   0  0  0  0  0  0  0  0  0  0  0  0
    2.4680   -2.3030    1.1040 H   0  0  0  0  0  0  0  0  0  0  0  0
    4.1060   -2.6350    1.3840 H   0  0  0  0  0  0  0  0  0  0  0  0
    7.4090   -5.4690   -3.0630 H   0  0  0  0  0  0  0  0  0  0  0  0
    4.2260   -4.3960   -7.0840 H   0  0  0  0  0  0  0  0  0  0  0  0
    6.7830   -5.0130   -5.6310 H   0  0  0  0  0  0  0  0  0  0  0  0
    2.4800   -2.6140   -7.7780 H   0  0  0  0  0  0  0  0  0  0  0  0
    2.1150   -1.9020   -0.7590 H   0  0  0  0  0  0  0  0  0  0  0  0
    6.7350   -7.4700   -5.1950 H   0  0  0  0  0  0  0  0  0  0  0  0
    4.1540    1.2780   -1.7760 H   0  0  0  0  0  0  0  0  0  0  0  0
    3.2690    2.4810   -0.7820 H   0  0  0  0  0  0  0  0  0  0  0  0
    4.0160    1.0250   -0.0680 H   0  0  0  0  0  0  0  0  0  0  0  0
    3.0460    2.7330   -3.9250 H   0  0  0  0  0  0  0  0  0  0  0  0
    5.8000   -2.1420   -2.2580 H   0  0  0  0  0  0  0  0  0  0  0  0
    6.6130   -2.3670   -0.6640 H   0  0  0  0  0  0  0  0  0  0  0  0
    4.8950   -1.9370   -0.8200 H   0  0  0  0  0  0  0  0  0  0  0  0
    3.8290   -6.0750   -2.3770 H   0  0  0  0  0  0  0  0  0  0  0  0
    3.8150   -6.4330   -0.7450 H   0  0  0  0  0  0  0  0  0  0  0  0
    2.2910   -5.8470   -1.6210 H   0  0  0  0  0  0  0  0  0  0  0  0
    5.7820   -5.0260    0.5700 H   0  0  0  0  0  0  0  0  0  0  0  0
    6.3850   -5.8810   -0.8510 H   0  0  0  0  0  0  0  0  0  0  0  0
    7.1250   -4.3780   -0.2930 H   0  0  0  0  0  0  0  0  0  0  0  0
    2.1460   -4.6350    0.2930 H   0  0  0  0  0  0  0  0  0  0  0  0
    3.7250   -5.0710    0.8730 H   0  0  0  0  0  0  0  0  0  0  0  0
   -0.3000   -0.8390   -8.8290 H   0  0  0  0  0  0  0  0  0  0  0  0
   -2.0680   -2.3280   -7.8980 H   0  0  0  0  0  0  0  0  0  0  0  0
   -3.2320   -1.6340   -5.8220 H   0  0  0  0  0  0  0  0  0  0  0  0
   -5.0280    8.6130   -4.1470 H   0  0  0  0  0  0  0  0  0  0  0  0
   -5.1880    9.1490   -1.7180 H   0  0  0  0  0  0  0  0  0  0  0  0
   -4.3380    7.5670   -0.0690 H   0  0  0  0  0  0  0  0  0  0  0  0
   -2.9750    5.1490   -6.6370 H   0  0  0  0  0  0  0  0  0  0  0  0
   -4.1220    7.1950   -5.9180 H   0  0  0  0  0  0  0  0  0  0  0  0
   -4.9740    5.6560   -5.4130 H   0  0  0  0  0  0  0  0  0  0  0  0
   -3.5890    0.1550   -2.2680 H   0  0  0  0  0  0  0  0  0  0  0  0
   -1.9390    0.6680   -1.8770 H   0  0  0  0  0  0  0  0  0  0  0  0
   -3.1460    0.5530    0.1420 H   0  0  0  0  0  0  0  0  0  0  0  0
   -4.5250    1.4250   -0.4850 H   0  0  0  0  0  0  0  0  0  0  0  0
   -3.3200    2.8470    0.9510 H   0  0  0  0  0  0  0  0  0  0  0  0
   -1.3310    4.0220   -7.8250 H   0  0  0  0  0  0  0  0  0  0  0  0
   -0.6330    4.4120   -6.2120 H   0  0  0  0  0  0  0  0  0  0  0  0
    1.0460    3.6500   -7.7290 H   0  0  0  0  0  0  0  0  0  0  0  0
    1.1060    1.1970   -8.2260 H   0  0  0  0  0  0  0  0  0  0  0  0
   -0.1040    2.1330   -9.1210 H   0  0  0  0  0  0  0  0  0  0  0  0
   -1.4710    6.6690   -4.3370 H   0  0  0  0  0  0  0  0  0  0  0  0
   -3.6130    4.7080    1.8010 H   0  0  0  0  0  0  0  0  0  0  0  0
   -0.7330    2.5640   -0.6020 H   0  0  0  0  0  0  0  0  0  0  0  0
   -0.9900    3.2280    1.0180 H   0  0  0  0  0  0  0  0  0  0  0  0
   -1.1500    1.5210    0.7490 H   0  0  0  0  0  0  0  0  0  0  0  0
    0.3460    2.4600   -5.0500 H   0  0  0  0  0  0  0  0  0  0  0  0
    1.6410    3.5150   -5.5630 H   0  0  0  0  0  0  0  0  0  0  0  0
  1  3  2  0
  1  5  1  0
  1 20  1  0
  2  4  2  0
  2  6  1  0
  2 24  1  0
  3  7  1  0
  3 23  1  0
  4  8  1  0
  4 27  1  0
  5 12  2  0
  5 34  1  0
  6 13  2  0
  6 36  1  0
  7 14  2  0
  7 39  1  0
  8 15  2  0
  8 18  1  0
  9 10  2  0
  9 12  1  0
  9120  1  0
 10 16  1  0
 10 19  1  0
 11 13  1  0
 11 17  1  0
 11121  1  0
 11122  1  0
 12 14  1  0
 13 15  1  0
 14 17  1  0
 15 16  1  0
 16 17  2  0
 18 19  2  0
 18 29  1  0
 19123  1  0
 20 21  2  0
 20 30  1  0
 21 22  1  0
 21 33  1  0
 22 23  2  0
 22124  1  0
 23 41  1  0
 24 25  2  0
 24 38  1  0
 25 26  1  0
 25125  1  0
 26 27  2  0
 27 28  1  0
 28 29  2  0
 28126  1  0
 29 42  1  0
 30 31  2  0
 30 35  1  0
 31 32  1  0
 31127  1  0
 32 33  2  0
 32128  1  0
 33 45  1  0
 34 35  1  0
 34 46  1  6
 34 52  1  0
 35129  1  0
 35130  1  0
 36 37  1  0
 36 49  1  0
 36131  1  1
 37 38  1  0
 37132  1  0
 37133  1  0
 38 50  1  0
 38134  1  6
 39 40  1  0
 39135  1  0
 39136  1  0
 40 41  1  0
 40137  1  0
 40138  1  0
 41139  1  0
 41140  1  0
 42 43  2  0
 42 44  1  0
 44 48  1  0
 44141  1  0
 44142  1  0
 45143  1  0
 46 47  1  0
 46144  1  0
 46145  1  0
 47146  1  0
 47147  1  0
 47148  1  0
 48149  1  0
 48150  1  0
 48151  1  0
 49152  1  0
 49153  1  0
 49154  1  0
 50 51  1  0
 50155  1  0
 50156  1  0
 51157  1  0
 51158  1  0
 51159  1  0
 52 84  1  0
 52160  1  0
 52161  1  0
 53 54  2  0
 53 56  1  0
 53 62  1  0
 54 57  1  0
 54 65  1  0
 55 58  2  0
 55 59  1  0
 55162  1  0
 56 60  2  0
 56 71  1  0
 57 61  2  0
 57163  1  0
 58 60  1  0
 58 73  1  0
 59 61  1  0
 59 74  1  0
 59164  1  6
 60 61  1  0
 62 63  2  0
 62 66  1  0
 63 64  1  0
 63 69  1  0
 64 65  2  0
 65165  1  0
 66 67  2  0
 66 70  1  0
 67 68  1  0
 67 76  1  0
 68 69  2  0
 68 80  1  0
 69 79  1  0
 70 71  2  0
 70166  1  0
 71 72  1  0
 72 73  1  0
 72 82  1  6
 72 84  1  0
 73 81  1  6
 73 83  1  0
 74 75  2  0
 74167  1  0
 76 77  2  0
 76 78  1  0
 78168  1  0
 78169  1  0
 78170  1  0
 79119  1  0
 80171  1  0
 81172  1  0
 81173  1  0
 81174  1  0
 82175  1  0
 82176  1  0
 82177  1  0
 83178  1  0
 83179  1  0
 83180  1  0
 84181  1  0
 84182  1  0
 85 86  2  0
 85 89  1  0
 85 95  1  0
 86 90  1  0
 86 98  1  0
 87 88  1  0
 87 91  2  0
 87 99  1  0
 88 92  2  0
 88102  1  0
 89 93  2  0
 89107  1  0
 90 94  2  0
 90109  1  0
 91 93  1  0
 91112  1  0
 92 94  1  0
 93 94  1  0
 95 96  2  0
 95103  1  0
 96 97  1  0
 96106  1  0
 97 98  2  0
 97117  1  0
 98111  1  0
 99100  2  0
 99114  1  0
100101  1  0
100183  1  0
101102  2  0
101184  1  0
102185  1  0
103104  2  0
103108  1  0
104105  1  0
104186  1  0
105106  2  0
105187  1  0
106188  1  0
107108  1  0
107115  1  0
107189  1  6
108190  1  0
108191  1  0
109110  1  0
109192  1  0
109193  1  0
110111  1  0
110194  1  0
110195  1  0
111118  1  0
111196  1  1
112113  1  0
112197  1  0
112198  1  0
113114  1  0
113119  1  0
113199  1  6
114200  1  0
114201  1  0
115116  2  0
115202  1  0
117203  1  0
118204  1  0
118205  1  0
118206  1  0
119207  1  0
119208  1  0
M  END
