
     RDKit          3D

 91 99  0  0  0  0  0  0  0  0999 V2000
    2.8780    0.9730    3.6050 C   0  0  0  0  0  0  0  0  0  0  0  0
    1.6390    1.5350    3.9360 C   0  0  0  0  0  0  0  0  0  0  0  0
    0.4400    1.1310    3.2740 C   0  0  0  0  0  0  0  0  0  0  0  0
    0.5430    0.0710    2.3250 C   0  0  0  0  0  0  0  0  0  0  0  0
    1.7940   -0.5380    2.0790 C   0  0  0  0  0  0  0  0  0  0  0  0
    2.9610   -0.0550    2.6790 C   0  0  0  0  0  0  0  0  0  0  0  0
    1.6750    2.5050    5.0620 C   0  0  0  0  0  0  0  0  0  0  0  0
    2.6410    2.5890    5.8250 O   0  0  0  0  0  0  0  0  0  0  0  0
    1.9120   -1.7240    1.2030 C   0  0  0  0  0  0  0  0  0  0  0  0
    2.9980   -2.2440    0.9600 O   0  0  0  0  0  0  0  0  0  0  0  0
   -0.5270   -0.5440    1.7120 O   0  0  0  0  0  0  0  0  0  0  0  0
   -0.9030    1.7280    3.6750 C   0  0  0  0  0  0  0  0  0  0  0  0
   -0.5620    6.1700    4.9540 C   0  0  0  0  0  0  0  0  0  0  0  0
    0.4130    6.7710    4.1510 C   0  0  0  0  0  0  0  0  0  0  0  0
    0.8300    6.1330    2.9760 C   0  0  0  0  0  0  0  0  0  0  0  0
    0.2860    4.9020    2.6030 C   0  0  0  0  0  0  0  0  0  0  0  0
   -0.7090    4.3050    3.3950 C   0  0  0  0  0  0  0  0  0  0  0  0
   -1.1190    4.9500    4.5680 C   0  0  0  0  0  0  0  0  0  0  0  0
    1.8260    6.7900    2.1050 C   0  0  0  0  0  0  0  0  0  0  0  0
    2.1330    6.3360    1.0110 O   0  0  0  0  0  0  0  0  0  0  0  0
   -2.0770    4.3470    5.3390 O   0  0  0  0  0  0  0  0  0  0  0  0
   -1.3470    3.0150    2.9450 C   0  0  0  0  0  0  0  0  0  0  0  0
    0.7480   -1.7180   -4.0350 C   0  0  0  0  0  0  0  0  0  0  0  0
    1.1530   -3.0630   -4.0700 C   0  0  0  0  0  0  0  0  0  0  0  0
   -1.8970   -2.7310   -0.0090 C   0  0  0  0  0  0  0  0  0  0  0  0
   -1.4630   -4.0690   -0.1180 C   0  0  0  0  0  0  0  0  0  0  0  0
    0.0050   -1.2240   -2.9260 C   0  0  0  0  0  0  0  0  0  0  0  0
    0.7620   -3.9240   -3.0500 C   0  0  0  0  0  0  0  0  0  0  0  0
   -1.2650   -1.7250   -0.8260 C   0  0  0  0  0  0  0  0  0  0  0  0
   -0.5270   -4.4170   -1.0920 C   0  0  0  0  0  0  0  0  0  0  0  0
   -0.4230   -2.1170   -1.9040 C   0  0  0  0  0  0  0  0  0  0  0  0
   -0.0570   -3.4780   -2.0120 C   0  0  0  0  0  0  0  0  0  0  0  0
    1.1110   -0.8720   -5.1150 C   0  0  0  0  0  0  0  0  0  0  0  0
    1.8830   -1.3580   -6.2050 C   0  0  0  0  0  0  0  0  0  0  0  0
    2.2880   -2.7050   -6.1740 C   0  0  0  0  0  0  0  0  0  0  0  0
    1.9310   -3.5440   -5.1230 C   0  0  0  0  0  0  0  0  0  0  0  0
   -2.9600   -2.5120    0.8980 C   0  0  0  0  0  0  0  0  0  0  0  0
   -3.4830   -3.5130    1.7210 C   0  0  0  0  0  0  0  0  0  0  0  0
   -2.9820   -4.8000    1.6320 C   0  0  0  0  0  0  0  0  0  0  0  0
   -1.9820   -5.0750    0.7080 C   0  0  0  0  0  0  0  0  0  0  0  0
    0.6930    0.4720   -5.0910 C   0  0  0  0  0  0  0  0  0  0  0  0
    1.0180    1.3230   -6.1540 C   0  0  0  0  0  0  0  0  0  0  0  0
    1.7780    0.8630   -7.2220 C   0  0  0  0  0  0  0  0  0  0  0  0
    2.2200   -0.4700   -7.2620 C   0  0  0  0  0  0  0  0  0  0  0  0
   -0.0080    0.9610   -3.9860 C   0  0  0  0  0  0  0  0  0  0  0  0
   -0.3060    0.1480   -2.8780 C   0  0  0  0  0  0  0  0  0  0  0  0
   -0.7010    0.7860   -1.5310 C   0  0  2  0  0  0  0  0  0  0  0  0
   -1.5060   -0.2290   -0.5950 C   0  0  2  0  0  0  0  0  0  0  0  0
   -1.4040    0.2380    0.9050 C   0  0  0  0  0  0  0  0  0  0  0  0
   -1.6280    2.0490   -1.7070 C   0  0  0  0  0  0  0  0  0  0  0  0
   -0.9600    3.4280   -1.7080 C   0  0  0  0  0  0  0  0  0  0  0  0
    0.6800    1.1700   -0.9190 C   0  0  0  0  0  0  0  0  0  0  0  0
    3.0500   -0.9120   -8.4380 C   0  0  0  0  0  0  0  0  0  0  0  0
    3.7900    1.3040    4.1070 H   0  0  0  0  0  0  0  0  0  0  0  0
    3.9270   -0.4960    2.4520 H   0  0  0  0  0  0  0  0  0  0  0  0
    0.7940    3.1530    5.1960 H   0  0  0  0  0  0  0  0  0  0  0  0
    0.9850   -2.1480    0.7960 H   0  0  0  0  0  0  0  0  0  0  0  0
   -1.6740    0.9690    3.5070 H   0  0  0  0  0  0  0  0  0  0  0  0
   -0.9330    1.8710    4.7640 H   0  0  0  0  0  0  0  0  0  0  0  0
   -0.8850    6.6740    5.8620 H   0  0  0  0  0  0  0  0  0  0  0  0
    0.8410    7.7230    4.4570 H   0  0  0  0  0  0  0  0  0  0  0  0
    0.6130    4.4260    1.6810 H   0  0  0  0  0  0  0  0  0  0  0  0
    2.2640    7.7270    2.4810 H   0  0  0  0  0  0  0  0  0  0  0  0
   -2.2710    4.9260    6.0980 H   0  0  0  0  0  0  0  0  0  0  0  0
   -2.4330    3.1150    3.0590 H   0  0  0  0  0  0  0  0  0  0  0  0
   -1.1890    2.9430    1.8710 H   0  0  0  0  0  0  0  0  0  0  0  0
    1.0530   -4.9710   -3.0920 H   0  0  0  0  0  0  0  0  0  0  0  0
   -0.2170   -5.4580   -1.1750 H   0  0  0  0  0  0  0  0  0  0  0  0
    2.8910   -3.1320   -6.9700 H   0  0  0  0  0  0  0  0  0  0  0  0
    2.2700   -4.5770   -5.1340 H   0  0  0  0  0  0  0  0  0  0  0  0
   -3.4290   -1.5370    0.9730 H   0  0  0  0  0  0  0  0  0  0  0  0
   -4.2800   -3.2790    2.4270 H   0  0  0  0  0  0  0  0  0  0  0  0
   -3.3790   -5.5830    2.2710 H   0  0  0  0  0  0  0  0  0  0  0  0
   -1.6280   -6.1020    0.6300 H   0  0  0  0  0  0  0  0  0  0  0  0
    0.7010    2.3620   -6.1460 H   0  0  0  0  0  0  0  0  0  0  0  0
    2.0330    1.5520   -8.0280 H   0  0  0  0  0  0  0  0  0  0  0  0
   -0.2640    2.0210   -3.9720 H   0  0  0  0  0  0  0  0  0  0  0  0
   -2.5590   -0.1100   -0.8840 H   0  0  0  0  0  0  0  0  0  0  0  0
   -1.1490    1.2910    0.9410 H   0  0  0  0  0  0  0  0  0  0  0  0
   -2.3830    0.1910    1.3840 H   0  0  0  0  0  0  0  0  0  0  0  0
   -2.2370    1.9430   -2.6150 H   0  0  0  0  0  0  0  0  0  0  0  0
   -2.3620    2.0850   -0.8920 H   0  0  0  0  0  0  0  0  0  0  0  0
   -1.7040    4.1980   -1.9550 H   0  0  0  0  0  0  0  0  0  0  0  0
   -0.5470    3.6750   -0.7200 H   0  0  0  0  0  0  0  0  0  0  0  0
   -0.1500    3.5090   -2.4490 H   0  0  0  0  0  0  0  0  0  0  0  0
    1.2760    0.2840   -0.6850 H   0  0  0  0  0  0  0  0  0  0  0  0
    1.2910    1.7660   -1.6040 H   0  0  0  0  0  0  0  0  0  0  0  0
    0.5990    1.7710   -0.0130 H   0  0  0  0  0  0  0  0  0  0  0  0
    2.5750   -1.7440   -8.9720 H   0  0  0  0  0  0  0  0  0  0  0  0
    3.2000   -0.1000   -9.1560 H   0  0  0  0  0  0  0  0  0  0  0  0
    4.0390   -1.2220   -8.0830 H   0  0  0  0  0  0  0  0  0  0  0  0
  1  2  2  0
  1  6  1  0
  1 54  1  0
  2  3  1  0
  2  7  1  0
  3  4  2  0
  3 12  1  0
  4  5  1  0
  4 11  1  0
  5  6  2  0
  5  9  1  0
  6 55  1  0
  7  8  2  0
  7 56  1  0
  9 10  2  0
  9 57  1  0
 11 49  1  0
 12 22  1  0
 12 58  1  0
 12 59  1  0
 13 14  2  0
 13 18  1  0
 13 60  1  0
 14 15  1  0
 14 61  1  0
 15 16  2  0
 15 19  1  0
 16 17  1  0
 16 62  1  0
 17 18  2  0
 17 22  1  0
 18 21  1  0
 19 20  2  0
 19 63  1  0
 21 64  1  0
 22 65  1  0
 22 66  1  0
 23 24  1  0
 23 27  2  0
 23 33  1  0
 24 28  2  0
 24 36  1  0
 25 26  2  0
 25 29  1  0
 25 37  1  0
 26 30  1  0
 26 40  1  0
 27 31  1  0
 27 46  1  0
 28 32  1  0
 28 67  1  0
 29 31  2  0
 29 48  1  0
 30 32  2  0
 30 68  1  0
 31 32  1  0
 33 34  2  0
 33 41  1  0
 34 35  1  0
 34 44  1  0
 35 36  2  0
 35 69  1  0
 36 70  1  0
 37 38  2  0
 37 71  1  0
 38 39  1  0
 38 72  1  0
 39 40  2  0
 39 73  1  0
 40 74  1  0
 41 42  2  0
 41 45  1  0
 42 43  1  0
 42 75  1  0
 43 44  2  0
 43 76  1  0
 44 53  1  0
 45 46  2  0
 45 77  1  0
 46 47  1  0
 47 48  1  0
 47 50  1  6
 47 52  1  0
 48 49  1  0
 48 78  1  6
 49 79  1  0
 49 80  1  0
 50 51  1  0
 50 81  1  0
 50 82  1  0
 51 83  1  0
 51 84  1  0
 51 85  1  0
 52 86  1  0
 52 87  1  0
 52 88  1  0
 53 89  1  0
 53 90  1  0
 53 91  1  0
M  END
