
     RDKit          3D

 93101  0  0  0  0  0  0  0  0999 V2000
    2.0060    4.1050   -2.3920 C   0  0  0  0  0  0  0  0  0  0  0  0
    2.5030    5.2840   -1.7610 C   0  0  0  0  0  0  0  0  0  0  0  0
    4.1390    1.9910    1.1360 C   0  0  0  0  0  0  0  0  0  0  0  0
    2.2620    2.8370   -1.8420 C   0  0  0  0  0  0  0  0  0  0  0  0
    3.3010    5.1410   -0.6020 C   0  0  0  0  0  0  0  0  0  0  0  0
    3.3720    1.5590    0.1180 C   0  0  0  0  0  0  0  0  0  0  0  0
    4.3280    3.4920    1.1400 C   0  0  1  0  0  0  0  0  0  0  0  0
    3.0020    2.7320   -0.6770 C   0  0  0  0  0  0  0  0  0  0  0  0
    3.5280    3.8770   -0.0750 C   0  0  0  0  0  0  0  0  0  0  0  0
    1.2520    4.2090   -3.5710 C   0  0  0  0  0  0  0  0  0  0  0  0
    0.9710    5.4580   -4.1290 C   0  0  0  0  0  0  0  0  0  0  0  0
    1.4320    6.6230   -3.5240 C   0  0  0  0  0  0  0  0  0  0  0  0
    2.1790    6.5350   -2.3450 C   0  0  0  0  0  0  0  0  0  0  0  0
    0.1640    5.5340   -5.3630 C   0  0  0  0  0  0  0  0  0  0  0  0
   -0.2030    6.6020   -5.8340 O   0  0  0  0  0  0  0  0  0  0  0  0
    2.5700    7.8230   -1.7300 C   0  0  0  0  0  0  0  0  0  0  0  0
    3.3080    8.5820   -2.3510 O   0  0  0  0  0  0  0  0  0  0  0  0
    1.9810    8.1600   -0.3750 C   0  0  0  0  0  0  0  0  0  0  0  0
    1.2720    9.5020   -0.4130 C   0  0  0  0  0  0  0  0  0  0  0  0
    3.8050    4.1220    2.4230 C   0  0  0  0  0  0  0  0  0  0  0  0
    2.9540    0.1510   -0.1710 C   0  0  0  0  0  0  0  0  0  0  0  0
   -1.1690   -2.9880    0.3060 C   0  0  0  0  0  0  0  0  0  0  0  0
   -2.5490   -3.2570    0.1240 C   0  0  0  0  0  0  0  0  0  0  0  0
   -2.8230    1.3570   -0.2570 C   0  0  0  0  0  0  0  0  0  0  0  0
   -0.6640   -1.6440    0.1020 C   0  0  0  0  0  0  0  0  0  0  0  0
   -3.4630   -2.2100   -0.1350 C   0  0  0  0  0  0  0  0  0  0  0  0
   -1.5480    0.8500   -0.1120 C   0  0  0  0  0  0  0  0  0  0  0  0
   -3.6590    0.2800   -0.3150 N   0  0  0  0  0  0  0  0  0  0  0  0
   -1.6090   -0.5820   -0.0490 C   0  0  0  0  0  0  0  0  0  0  0  0
   -2.9630   -0.9010   -0.1620 C   0  0  0  0  0  0  0  0  0  0  0  0
   -0.3060   -4.0700    0.6810 C   0  0  0  0  0  0  0  0  0  0  0  0
   -0.7660   -5.4140    0.7470 C   0  0  0  0  0  0  0  0  0  0  0  0
   -2.1320   -5.6310    0.4970 C   0  0  0  0  0  0  0  0  0  0  0  0
   -3.0120   -4.5830    0.1990 C   0  0  0  0  0  0  0  0  0  0  0  0
    1.0370   -3.8130    1.0400 C   0  0  0  0  0  0  0  0  0  0  0  0
    1.9190   -4.8410    1.4010 C   0  0  0  0  0  0  0  0  0  0  0  0
    1.4820   -6.1520    1.4110 C   0  0  0  0  0  0  0  0  0  0  0  0
    0.1560   -6.4530    1.0840 C   0  0  0  0  0  0  0  0  0  0  0  0
    0.8940   -1.5120   -0.0050 C   0  0  1  0  0  0  0  0  0  0  0  0
    1.5300   -2.3750    1.1330 C   0  0  1  0  0  0  0  0  0  0  0  0
   -4.9380   -2.4950   -0.3020 C   0  0  0  0  0  0  0  0  0  0  0  0
   -5.1670   -3.8860   -0.8690 C   0  0  0  0  0  0  0  0  0  0  0  0
   -4.4730   -4.9200    0.0020 C   0  0  0  0  0  0  0  0  0  0  0  0
   -3.2820    2.7170   -0.3280 C   0  0  0  0  0  0  0  0  0  0  0  0
   -4.4610    3.0280   -0.4600 O   0  0  0  0  0  0  0  0  0  0  0  0
   -0.2500   -7.8810    1.0920 C   0  0  0  0  0  0  0  0  0  0  0  0
    0.4950   -8.7540    1.5350 O   0  0  0  0  0  0  0  0  0  0  0  0
    2.4170   -7.0890    1.7630 O   0  0  0  0  0  0  0  0  0  0  0  0
    1.2910   -2.0750   -1.4060 C   0  0  0  0  0  0  0  0  0  0  0  0
    1.2420   -1.8520    2.5700 C   0  0  0  0  0  0  0  0  0  0  0  0
    2.4850   -1.3020    3.2610 C   0  0  0  0  0  0  0  0  0  0  0  0
    1.4390   -0.0500    0.0480 C   0  0  0  0  0  0  0  0  0  0  0  0
    4.5810    1.3530    1.8910 H   0  0  0  0  0  0  0  0  0  0  0  0
    1.8870    1.9390   -2.3230 H   0  0  0  0  0  0  0  0  0  0  0  0
    3.7560    5.9990   -0.1140 H   0  0  0  0  0  0  0  0  0  0  0  0
    5.3850    3.7340    0.9850 H   0  0  0  0  0  0  0  0  0  0  0  0
    0.8770    3.3070   -4.0530 H   0  0  0  0  0  0  0  0  0  0  0  0
    1.2080    7.5970   -3.9580 H   0  0  0  0  0  0  0  0  0  0  0  0
   -0.1050    4.5760   -5.8360 H   0  0  0  0  0  0  0  0  0  0  0  0
    1.2700    7.3840   -0.0690 H   0  0  0  0  0  0  0  0  0  0  0  0
    2.7940    8.1770    0.3610 H   0  0  0  0  0  0  0  0  0  0  0  0
    0.4940    9.5120   -1.1850 H   0  0  0  0  0  0  0  0  0  0  0  0
    0.8000    9.7080    0.5540 H   0  0  0  0  0  0  0  0  0  0  0  0
    1.9740   10.3160   -0.6290 H   0  0  0  0  0  0  0  0  0  0  0  0
    4.3600    3.7520    3.2920 H   0  0  0  0  0  0  0  0  0  0  0  0
    3.9140    5.2110    2.4000 H   0  0  0  0  0  0  0  0  0  0  0  0
    2.7430    3.9020    2.5840 H   0  0  0  0  0  0  0  0  0  0  0  0
    3.2260   -0.0880   -1.2060 H   0  0  0  0  0  0  0  0  0  0  0  0
    3.5290   -0.5280    0.4660 H   0  0  0  0  0  0  0  0  0  0  0  0
   -0.6810    1.4830   -0.0150 H   0  0  0  0  0  0  0  0  0  0  0  0
   -4.6640    0.3530   -0.4140 H   0  0  0  0  0  0  0  0  0  0  0  0
   -2.5630   -6.6260    0.5620 H   0  0  0  0  0  0  0  0  0  0  0  0
    2.9460   -4.6210    1.6830 H   0  0  0  0  0  0  0  0  0  0  0  0
    2.6140   -2.4050    0.9690 H   0  0  0  0  0  0  0  0  0  0  0  0
   -5.4280   -2.3910    0.6730 H   0  0  0  0  0  0  0  0  0  0  0  0
   -5.3950   -1.7630   -0.9790 H   0  0  0  0  0  0  0  0  0  0  0  0
   -4.7720   -3.9410   -1.8920 H   0  0  0  0  0  0  0  0  0  0  0  0
   -6.2410   -4.1010   -0.9230 H   0  0  0  0  0  0  0  0  0  0  0  0
   -4.9540   -4.9790    0.9870 H   0  0  0  0  0  0  0  0  0  0  0  0
   -4.5750   -5.9010   -0.4760 H   0  0  0  0  0  0  0  0  0  0  0  0
   -2.5010    3.4960   -0.2580 H   0  0  0  0  0  0  0  0  0  0  0  0
   -1.2260   -8.1560    0.6750 H   0  0  0  0  0  0  0  0  0  0  0  0
    1.9770   -7.9680    1.7960 H   0  0  0  0  0  0  0  0  0  0  0  0
    2.3780   -2.1780   -1.5050 H   0  0  0  0  0  0  0  0  0  0  0  0
    0.9390   -1.4110   -2.2050 H   0  0  0  0  0  0  0  0  0  0  0  0
    0.8630   -3.0620   -1.6170 H   0  0  0  0  0  0  0  0  0  0  0  0
    0.8450   -2.6520    3.2070 H   0  0  0  0  0  0  0  0  0  0  0  0
    0.4730   -1.0710    2.5630 H   0  0  0  0  0  0  0  0  0  0  0  0
    2.8560   -0.4080    2.7540 H   0  0  0  0  0  0  0  0  0  0  0  0
    2.2490   -1.0250    4.2930 H   0  0  0  0  0  0  0  0  0  0  0  0
    3.2850   -2.0470    3.2830 H   0  0  0  0  0  0  0  0  0  0  0  0
    1.1420    0.4280    0.9890 H   0  0  0  0  0  0  0  0  0  0  0  0
    0.9560    0.5070   -0.7590 H   0  0  0  0  0  0  0  0  0  0  0  0
  1  2  2  0
  1  4  1  0
  1 10  1  0
  2  5  1  0
  2 13  1  0
  3  6  2  0
  3  7  1  0
  3 53  1  0
  4  8  2  0
  4 54  1  0
  5  9  2  0
  5 55  1  0
  6  8  1  0
  6 21  1  0
  7  9  1  0
  7 20  1  0
  7 56  1  6
  8  9  1  0
 10 11  2  0
 10 57  1  0
 11 12  1  0
 11 14  1  0
 12 13  2  0
 12 58  1  0
 13 16  1  0
 14 15  2  0
 14 59  1  0
 16 17  2  0
 16 18  1  0
 18 19  1  0
 18 60  1  0
 18 61  1  0
 19 62  1  0
 19 63  1  0
 19 64  1  0
 20 65  1  0
 20 66  1  0
 20 67  1  0
 21 52  1  0
 21 68  1  0
 21 69  1  0
 22 23  2  0
 22 25  1  0
 22 31  1  0
 23 26  1  0
 23 34  1  0
 24 27  2  0
 24 28  1  0
 24 44  1  0
 25 29  2  0
 25 39  1  0
 26 30  2  0
 26 41  1  0
 27 29  1  0
 27 70  1  0
 28 30  1  0
 28 71  1  0
 29 30  1  0
 31 32  2  0
 31 35  1  0
 32 33  1  0
 32 38  1  0
 33 34  2  0
 33 72  1  0
 34 43  1  0
 35 36  2  0
 35 40  1  0
 36 37  1  0
 36 73  1  0
 37 38  2  0
 37 48  1  0
 38 46  1  0
 39 40  1  0
 39 49  1  6
 39 52  1  0
 40 50  1  0
 40 74  1  6
 41 42  1  0
 41 75  1  0
 41 76  1  0
 42 43  1  0
 42 77  1  0
 42 78  1  0
 43 79  1  0
 43 80  1  0
 44 45  2  0
 44 81  1  0
 46 47  2  0
 46 82  1  0
 48 83  1  0
 49 84  1  0
 49 85  1  0
 49 86  1  0
 50 51  1  0
 50 87  1  0
 50 88  1  0
 51 89  1  0
 51 90  1  0
 51 91  1  0
 52 92  1  0
 52 93  1  0
M  END
