
     RDKit          3D

264294  0  0  0  0  0  0  0  0999 V2000
    1.5880    3.2000    2.6310 C   0  0  0  0  0  0  0  0  0  0  0  0
    0.3840    3.2460    1.9760 C   0  0  0  0  0  0  0  0  0  0  0  0
    1.1570   -1.6100    2.4950 C   0  0  0  0  0  0  0  0  0  0  0  0
    0.6280   -1.4280    1.2020 C   0  0  0  0  0  0  0  0  0  0  0  0
    2.0860    1.9460    2.9850 C   0  0  0  0  0  0  0  0  0  0  0  0
   -0.1300    2.1390    1.2820 C   0  0  0  0  0  0  0  0  0  0  0  0
    1.5430   -0.4650    3.1830 C   0  0  0  0  0  0  0  0  0  0  0  0
    0.2720   -0.1650    0.7580 C   0  0  0  0  0  0  0  0  0  0  0  0
    1.3170    0.8010    2.6390 C   0  0  0  0  0  0  0  0  0  0  0  0
    0.4670    0.9170    1.5930 C   0  0  0  0  0  0  0  0  0  0  0  0
    2.2730    4.4030    2.8880 C   0  0  0  0  0  0  0  0  0  0  0  0
    1.6900    5.6100    2.5010 C   0  0  0  0  0  0  0  0  0  0  0  0
    0.3950    5.6490    1.9570 C   0  0  0  0  0  0  0  0  0  0  0  0
   -0.3170    4.4500    1.8720 C   0  0  0  0  0  0  0  0  0  0  0  0
    3.3530    1.8430    3.7910 C   0  0  0  0  0  0  0  0  0  0  0  0
    4.2930    2.9970    3.4550 C   0  0  0  0  0  0  0  0  0  0  0  0
    3.6050    4.3510    3.5920 C   0  0  0  0  0  0  0  0  0  0  0  0
   -1.3170    2.2440    0.3480 C   0  0  0  0  0  0  0  0  0  0  0  0
   -1.9200    3.6690    0.2870 C   0  0  0  0  0  0  0  0  0  0  0  0
   -1.8040    4.2350    1.6870 C   0  0  2  0  0  0  0  0  0  0  0  0
    0.8800   -2.5110    0.3490 O   0  0  0  0  0  0  0  0  0  0  0  0
    1.5980   -3.1490    3.2530 S   0  0  0  0  0  0  0  0  0  0  0  0
   -2.8540    5.2580    2.1470 C   0  0  0  0  0  0  0  0  0  0  0  0
   -2.8330    5.3610    3.6810 C   0  0  0  0  0  0  0  0  0  0  0  0
   -0.1200    6.8940    1.3080 C   0  0  0  0  0  0  0  0  0  0  0  0
    1.7880   -4.6520   -1.3290 C   0  0  0  0  0  0  0  0  0  0  0  0
    1.3130   -5.8980   -1.7930 C   0  0  0  0  0  0  0  0  0  0  0  0
    2.7520  -11.2000    3.7890 C   0  0  0  0  0  0  0  0  0  0  0  0
    3.0030   -4.5440   -0.5380 C   0  0  0  0  0  0  0  0  0  0  0  0
    3.8680  -10.2430    4.0570 C   0  0  0  0  0  0  0  0  0  0  0  0
    2.0490  -10.8660    2.6870 C   0  0  0  0  0  0  0  0  0  0  0  0
    1.7250   -7.0690   -1.1410 C   0  0  0  0  0  0  0  0  0  0  0  0
    4.2040   -7.8940    2.9210 C   0  0  0  0  0  0  0  0  0  0  0  0
    4.0280   -5.9050    1.3220 N   0  0  0  0  0  0  0  0  0  0  0  0
    2.4310   -9.0700    0.9440 C   0  0  0  0  0  0  0  0  0  0  0  0
    3.6620   -9.1880    3.0040 C   0  0  0  0  0  0  0  0  0  0  0  0
    2.6890   -9.6960    2.1220 C   0  0  0  0  0  0  0  0  0  0  0  0
    3.2590   -5.6820    0.1810 C   0  0  0  0  0  0  0  0  0  0  0  0
    3.8310   -7.2240    1.7590 C   0  0  0  0  0  0  0  0  0  0  0  0
    2.7100   -6.8900   -0.1740 C   0  0  0  0  0  0  0  0  0  0  0  0
    3.0370   -7.8200    0.7950 C   0  0  0  0  0  0  0  0  0  0  0  0
    1.0430   -8.3110   -0.9640 C   0  0  0  0  0  0  0  0  0  0  0  0
    1.4000   -9.2970    0.0110 C   0  0  0  0  0  0  0  0  0  0  0  0
    1.2430   -3.5120   -1.8800 C   0  0  0  0  0  0  0  0  0  0  0  0
    0.3390   -3.6780   -2.9710 C   0  0  0  0  0  0  0  0  0  0  0  0
   -0.0920   -4.9350   -3.4080 C   0  0  0  0  0  0  0  0  0  0  0  0
    0.3850   -6.0630   -2.8460 C   0  0  0  0  0  0  0  0  0  0  0  0
    0.2220   -2.6320   -3.9820 C   0  0  0  0  0  0  0  0  0  0  0  0
   -0.9230   -2.3930   -4.4750 O   0  0  0  0  0  0  0  0  0  0  0  0
    1.5100   -1.9860   -4.4440 C   0  0  0  0  0  0  0  0  0  0  0  0
    2.5120  -12.3640    4.6530 C   0  0  0  0  0  0  0  0  0  0  0  0
    1.9470   -3.0040   -5.4580 C   0  0  0  0  0  0  0  0  0  0  0  0
    3.8060   -3.3090   -0.3790 C   0  0  0  0  0  0  0  0  0  0  0  0
    1.1140   -2.2170   -1.0930 C   0  0  0  0  0  0  0  0  0  0  0  0
    1.2000    5.2680    6.7530 C   0  0  0  0  0  0  0  0  0  0  0  0
    0.0750    4.4110    6.7100 C   0  0  0  0  0  0  0  0  0  0  0  0
    3.4640    1.6420    8.3790 C   0  0  0  0  0  0  0  0  0  0  0  0
    2.4520    4.8670    7.2030 C   0  0  0  0  0  0  0  0  0  0  0  0
    0.2910    3.0420    7.0110 C   0  0  0  0  0  0  0  0  0  0  0  0
    3.7690    2.9400    8.1100 C   0  0  0  0  0  0  0  0  0  0  0  0
    1.9620    1.3650    8.1930 C   0  0  1  0  0  0  0  0  0  0  0  0
    2.5600    3.5570    7.6620 C   0  0  0  0  0  0  0  0  0  0  0  0
    1.4870    2.6600    7.5930 C   0  0  0  0  0  0  0  0  0  0  0  0
    1.1350    6.5890    6.1910 C   0  0  0  0  0  0  0  0  0  0  0  0
   -0.0610    6.9740    5.5580 C   0  0  0  0  0  0  0  0  0  0  0  0
   -0.9960    5.9700    5.2170 C   0  0  0  0  0  0  0  0  0  0  0  0
   -1.0550    4.8100    5.9960 C   0  0  0  0  0  0  0  0  0  0  0  0
    2.2650    7.4090    6.2500 C   0  0  0  0  0  0  0  0  0  0  0  0
    2.1640    8.6720    5.6530 C   0  0  0  0  0  0  0  0  0  0  0  0
    0.9800    9.1110    5.0930 C   0  0  0  0  0  0  0  0  0  0  0  0
   -0.1100    8.2700    4.9880 C   0  0  0  0  0  0  0  0  0  0  0  0
    3.4690    6.9710    6.8100 C   0  0  0  0  0  0  0  0  0  0  0  0
    3.6090    5.6390    7.1660 C   0  0  0  0  0  0  0  0  0  0  0  0
    4.9790    5.0020    7.3170 C   0  0  0  0  0  0  0  0  0  0  0  0
    5.0330    3.7420    8.1980 C   0  0  1  0  0  0  0  0  0  0  0  0
   -1.7740    6.2000    4.0980 O   0  0  0  0  0  0  0  0  0  0  0  0
   -1.2900    8.6820    4.4650 O   0  0  0  0  0  0  0  0  0  0  0  0
   -0.7940    2.2200    6.7840 O   0  0  0  0  0  0  0  0  0  0  0  0
    1.8560    0.1390    7.3440 C   0  0  0  0  0  0  0  0  0  0  0  0
    5.2680    4.1910    9.6320 C   0  0  0  0  0  0  0  0  0  0  0  0
   -3.6530   -3.7360    0.7740 C   0  0  0  0  0  0  0  0  0  0  0  0
   -4.0280   -4.3990   -0.4460 C   0  0  0  0  0  0  0  0  0  0  0  0
   -2.2980   -7.9230    2.1070 C   0  0  0  0  0  0  0  0  0  0  0  0
   -3.0690   -4.4510    1.7030 C   0  0  0  0  0  0  0  0  0  0  0  0
   -3.9230   -5.8230   -0.5100 C   0  0  0  0  0  0  0  0  0  0  0  0
   -2.4140   -6.7150    2.6710 C   0  0  0  0  0  0  0  0  0  0  0  0
   -3.0560   -7.9940    0.8030 C   0  0  0  0  0  0  0  0  0  0  0  0
   -3.0870   -5.8490    1.6880 C   0  0  0  0  0  0  0  0  0  0  0  0
   -3.4960   -6.5500    0.5910 C   0  0  0  0  0  0  0  0  0  0  0  0
   -3.7470   -2.3640    0.9330 C   0  0  0  0  0  0  0  0  0  0  0  0
   -4.3170   -1.6220   -0.0330 C   0  0  0  0  0  0  0  0  0  0  0  0
   -4.5520   -2.1640   -1.3570 C   0  0  0  0  0  0  0  0  0  0  0  0
   -4.3950   -3.5660   -1.4840 C   0  0  0  0  0  0  0  0  0  0  0  0
   -3.1870   -1.7320    2.1160 C   0  0  0  0  0  0  0  0  0  0  0  0
   -3.6760   -0.4720    2.4560 C   0  0  0  0  0  0  0  0  0  0  0  0
   -4.3950    0.2050    1.5040 C   0  0  0  0  0  0  0  0  0  0  0  0
   -4.8560   -0.4480    0.3750 C   0  0  0  0  0  0  0  0  0  0  0  0
   -2.4310   -2.5450    2.9760 C   0  0  0  0  0  0  0  0  0  0  0  0
   -2.1830   -3.8610    2.6420 C   0  0  0  0  0  0  0  0  0  0  0  0
   -4.6860   -1.3670   -2.5210 C   0  0  0  0  0  0  0  0  0  0  0  0
   -5.2370   -1.9820   -3.6500 C   0  0  0  0  0  0  0  0  0  0  0  0
   -5.0210   -3.3450   -3.7870 C   0  0  0  0  0  0  0  0  0  0  0  0
   -4.6900   -4.1560   -2.7090 C   0  0  0  0  0  0  0  0  0  0  0  0
   -3.9060   -6.4370   -1.8710 C   0  0  0  0  0  0  0  0  0  0  0  0
   -4.7260   -5.6540   -2.8890 C   0  0  0  0  0  0  0  0  0  0  0  0
   -0.9780   -4.7280    3.0890 C   0  0  1  0  0  0  0  0  0  0  0  0
   -1.6760   -6.0010    3.7520 C   0  0  1  0  0  0  0  0  0  0  0  0
   -4.8660    1.5770    1.6670 C   0  0  0  0  0  0  0  0  0  0  0  0
   -5.9340    1.9450    1.1060 O   0  0  0  0  0  0  0  0  0  0  0  0
   -2.3500   -2.3250    4.4480 O   0  0  0  0  0  0  0  0  0  0  0  0
   -3.1670    0.2450    3.5230 O   0  0  0  0  0  0  0  0  0  0  0  0
   -0.1790   -5.2840    1.8470 C   0  0  0  0  0  0  0  0  0  0  0  0
   -2.6520   -5.6670    4.8660 C   0  0  0  0  0  0  0  0  0  0  0  0
   -1.4740   -9.0320    2.6180 C   0  0  0  0  0  0  0  0  0  0  0  0
   -4.4500    0.1540   -2.5130 C   0  0  0  0  0  0  0  0  0  0  0  0
    0.0610   -4.0420    4.0330 C   0  0  0  0  0  0  0  0  0  0  0  0
   -1.4190    4.2240   -6.1520 C   0  0  0  0  0  0  0  0  0  0  0  0
   -0.4560    5.1950   -6.0550 C   0  0  0  0  0  0  0  0  0  0  0  0
    0.8380    2.2870   -2.6530 C   0  0  0  0  0  0  0  0  0  0  0  0
    1.3590    3.5360   -2.2980 C   0  0  0  0  0  0  0  0  0  0  0  0
   -1.6900    3.3910   -5.0660 C   0  0  0  0  0  0  0  0  0  0  0  0
    0.0500    5.5630   -4.7760 C   0  0  0  0  0  0  0  0  0  0  0  0
   -0.3210    2.2380   -3.4460 C   0  0  0  0  0  0  0  0  0  0  0  0
    0.9070    4.6790   -2.7830 N   0  0  0  0  0  0  0  0  0  0  0  0
   -0.7320    3.4300   -4.0440 C   0  0  0  0  0  0  0  0  0  0  0  0
    0.0230    4.5560   -3.7970 C   0  0  0  0  0  0  0  0  0  0  0  0
   -2.1410    4.0740   -7.3700 C   0  0  0  0  0  0  0  0  0  0  0  0
   -1.4940    4.4910   -8.5570 C   0  0  0  0  0  0  0  0  0  0  0  0
   -0.3990    5.3430   -8.4650 C   0  0  0  0  0  0  0  0  0  0  0  0
   -0.0080    5.8430   -7.2300 C   0  0  0  0  0  0  0  0  0  0  0  0
    1.5010    1.0990   -2.3160 C   0  0  0  0  0  0  0  0  0  0  0  0
    2.7520    1.1820   -1.7240 C   0  0  0  0  0  0  0  0  0  0  0  0
    3.2750    2.4220   -1.3590 C   0  0  0  0  0  0  0  0  0  0  0  0
    2.5640    3.5890   -1.5960 C   0  0  0  0  0  0  0  0  0  0  0  0
   -2.8410    2.4150   -5.1530 C   0  0  2  0  0  0  0  0  0  0  0  0
   -3.9650    3.2270   -5.8550 C   0  0  0  0  0  0  0  0  0  0  0  0
   -3.6110    3.7010   -7.2520 C   0  0  2  0  0  0  0  0  0  0  0  0
    0.8960    6.8150   -4.6550 C   0  0  1  0  0  0  0  0  0  0  0  0
    0.6000    7.7520   -5.8340 C   0  0  0  0  0  0  0  0  0  0  0  0
    0.9160    7.0110   -7.1280 C   0  0  0  0  0  0  0  0  0  0  0  0
    4.6010    2.5380   -1.0100 O   0  0  0  0  0  0  0  0  0  0  0  0
   -2.1830    4.2360  -10.1880 S   0  0  0  0  0  0  0  0  0  0  0  0
   -3.4650    1.9920   -3.7960 C   0  0  0  0  0  0  0  0  0  0  0  0
   -4.1700    0.6580   -3.9080 C   0  0  0  0  0  0  0  0  0  0  0  0
    0.7040    7.5710   -3.3340 C   0  0  0  0  0  0  0  0  0  0  0  0
   -0.7460    7.8280   -2.9810 C   0  0  0  0  0  0  0  0  0  0  0  0
   -4.3530    2.8100   -8.2390 C   0  0  0  0  0  0  0  0  0  0  0  0
   -2.4040    1.1930   -6.0630 C   0  0  0  0  0  0  0  0  0  0  0  0
    2.1370   -0.6060    4.0590 H   0  0  0  0  0  0  0  0  0  0  0  0
   -0.3130   -0.1280   -0.1270 H   0  0  0  0  0  0  0  0  0  0  0  0
    2.2260    6.5500    2.6620 H   0  0  0  0  0  0  0  0  0  0  0  0
    3.8820    0.9140    3.5260 H   0  0  0  0  0  0  0  0  0  0  0  0
    3.1570    1.8210    4.8850 H   0  0  0  0  0  0  0  0  0  0  0  0
    5.1560    2.9780    4.1360 H   0  0  0  0  0  0  0  0  0  0  0  0
    4.6400    2.8800    2.4220 H   0  0  0  0  0  0  0  0  0  0  0  0
    4.2530    5.1340    3.1960 H   0  0  0  0  0  0  0  0  0  0  0  0
    3.3720    4.5470    4.6420 H   0  0  0  0  0  0  0  0  0  0  0  0
   -0.9900    1.9610   -0.6390 H   0  0  0  0  0  0  0  0  0  0  0  0
   -2.0980    1.5550    0.6830 H   0  0  0  0  0  0  0  0  0  0  0  0
   -2.9590    3.6170   -0.0160 H   0  0  0  0  0  0  0  0  0  0  0  0
   -1.3530    4.2660   -0.4320 H   0  0  0  0  0  0  0  0  0  0  0  0
   -2.0420    3.3860    2.3830 H   0  0  0  0  0  0  0  0  0  0  0  0
   -3.8170    4.8020    1.8620 H   0  0  0  0  0  0  0  0  0  0  0  0
   -2.7690    6.2160    1.6240 H   0  0  0  0  0  0  0  0  0  0  0  0
   -3.7530    5.8630    3.9910 H   0  0  0  0  0  0  0  0  0  0  0  0
   -2.8210    4.3510    4.1000 H   0  0  0  0  0  0  0  0  0  0  0  0
   -0.7670    7.4930    1.9480 H   0  0  0  0  0  0  0  0  0  0  0  0
    0.7490    7.4970    0.9870 H   0  0  0  0  0  0  0  0  0  0  0  0
   -0.6620    6.6290    0.3870 H   0  0  0  0  0  0  0  0  0  0  0  0
    4.8250  -10.7390    3.8180 H   0  0  0  0  0  0  0  0  0  0  0  0
    3.8850   -9.8190    5.0740 H   0  0  0  0  0  0  0  0  0  0  0  0
    1.1620  -11.3350    2.3060 H   0  0  0  0  0  0  0  0  0  0  0  0
    4.8050   -7.4240    3.6810 H   0  0  0  0  0  0  0  0  0  0  0  0
    4.3970   -5.1350    1.8780 H   0  0  0  0  0  0  0  0  0  0  0  0
    0.1030   -8.4710   -1.4910 H   0  0  0  0  0  0  0  0  0  0  0  0
    0.7350  -10.1380    0.1460 H   0  0  0  0  0  0  0  0  0  0  0  0
   -0.6570   -5.0080   -4.3310 H   0  0  0  0  0  0  0  0  0  0  0  0
   -0.0660   -7.0190   -3.0470 H   0  0  0  0  0  0  0  0  0  0  0  0
    2.3050   -1.8450   -3.6530 H   0  0  0  0  0  0  0  0  0  0  0  0
    1.2800   -1.0030   -4.9250 H   0  0  0  0  0  0  0  0  0  0  0  0
    2.3860  -12.0560    5.7080 H   0  0  0  0  0  0  0  0  0  0  0  0
    3.4030  -13.0070    4.6300 H   0  0  0  0  0  0  0  0  0  0  0  0
    1.6090  -12.9520    4.3590 H   0  0  0  0  0  0  0  0  0  0  0  0
    2.2530   -3.9230   -4.9380 H   0  0  0  0  0  0  0  0  0  0  0  0
    2.7860   -2.6610   -6.0420 H   0  0  0  0  0  0  0  0  0  0  0  0
    1.1390   -3.2910   -6.1270 H   0  0  0  0  0  0  0  0  0  0  0  0
    3.9090   -2.8450   -1.3700 H   0  0  0  0  0  0  0  0  0  0  0  0
    4.7760   -3.6290   -0.0490 H   0  0  0  0  0  0  0  0  0  0  0  0
    3.4080   -2.5730    0.3670 H   0  0  0  0  0  0  0  0  0  0  0  0
    0.2650   -1.6580   -1.4700 H   0  0  0  0  0  0  0  0  0  0  0  0
    2.0750   -1.7010   -1.2740 H   0  0  0  0  0  0  0  0  0  0  0  0
    4.1800    0.9500    8.7680 H   0  0  0  0  0  0  0  0  0  0  0  0
    1.4700    1.2650    9.1720 H   0  0  0  0  0  0  0  0  0  0  0  0
   -1.8740    4.1240    5.8850 H   0  0  0  0  0  0  0  0  0  0  0  0
    3.0820    9.2650    5.5680 H   0  0  0  0  0  0  0  0  0  0  0  0
    0.9050   10.1330    4.7450 H   0  0  0  0  0  0  0  0  0  0  0  0
    4.3660    7.5880    6.7490 H   0  0  0  0  0  0  0  0  0  0  0  0
    5.2800    4.7430    6.2920 H   0  0  0  0  0  0  0  0  0  0  0  0
    5.6950    5.7610    7.6680 H   0  0  0  0  0  0  0  0  0  0  0  0
    5.8960    3.1540    7.8680 H   0  0  0  0  0  0  0  0  0  0  0  0
   -1.1350    9.1150    3.6140 H   0  0  0  0  0  0  0  0  0  0  0  0
   -0.4900    1.3020    6.7780 H   0  0  0  0  0  0  0  0  0  0  0  0
    2.0840    0.3500    6.3020 H   0  0  0  0  0  0  0  0  0  0  0  0
    2.5350   -0.6340    7.7070 H   0  0  0  0  0  0  0  0  0  0  0  0
    0.8400   -0.2430    7.4080 H   0  0  0  0  0  0  0  0  0  0  0  0
    4.4570    4.8330   10.0170 H   0  0  0  0  0  0  0  0  0  0  0  0
    5.3500    3.3230   10.2830 H   0  0  0  0  0  0  0  0  0  0  0  0
    6.2110    4.7490    9.6890 H   0  0  0  0  0  0  0  0  0  0  0  0
   -3.9410   -8.6140    0.8970 H   0  0  0  0  0  0  0  0  0  0  0  0
   -2.4130   -8.3050   -0.0420 H   0  0  0  0  0  0  0  0  0  0  0  0
   -5.5020    0.0790   -0.2790 H   0  0  0  0  0  0  0  0  0  0  0  0
   -5.4630   -1.3960   -4.5160 H   0  0  0  0  0  0  0  0  0  0  0  0
   -5.2710   -3.8020   -4.7760 H   0  0  0  0  0  0  0  0  0  0  0  0
   -4.2740   -7.4610   -1.8150 H   0  0  0  0  0  0  0  0  0  0  0  0
   -2.8590   -6.4230   -2.1870 H   0  0  0  0  0  0  0  0  0  0  0  0
   -4.3820   -5.9410   -3.9010 H   0  0  0  0  0  0  0  0  0  0  0  0
   -5.7890   -5.9010   -2.7750 H   0  0  0  0  0  0  0  0  0  0  0  0
   -0.8750   -6.6140    4.1760 H   0  0  0  0  0  0  0  0  0  0  0  0
   -4.3080    2.1880    2.3900 H   0  0  0  0  0  0  0  0  0  0  0  0
   -2.0930   -1.3540    4.4550 H   0  0  0  0  0  0  0  0  0  0  0  0
   -3.9340    0.4820    4.0990 H   0  0  0  0  0  0  0  0  0  0  0  0
   -0.8390   -5.5630    1.0090 H   0  0  0  0  0  0  0  0  0  0  0  0
    0.4470   -4.4850    1.4410 H   0  0  0  0  0  0  0  0  0  0  0  0
    0.3980   -6.1760    2.1970 H   0  0  0  0  0  0  0  0  0  0  0  0
   -2.3600   -4.8170    5.4750 H   0  0  0  0  0  0  0  0  0  0  0  0
   -2.7500   -6.5310    5.5180 H   0  0  0  0  0  0  0  0  0  0  0  0
   -3.6650   -5.4530    4.4930 H   0  0  0  0  0  0  0  0  0  0  0  0
   -0.5520   -9.1150    2.0310 H   0  0  0  0  0  0  0  0  0  0  0  0
   -1.1850   -8.8680    3.6550 H   0  0  0  0  0  0  0  0  0  0  0  0
   -2.0340   -9.9740    2.5480 H   0  0  0  0  0  0  0  0  0  0  0  0
   -5.2680    0.8100   -2.1020 H   0  0  0  0  0  0  0  0  0  0  0  0
   -3.5230    0.3160   -1.9330 H   0  0  0  0  0  0  0  0  0  0  0  0
    0.6040   -4.8950    4.4570 H   0  0  0  0  0  0  0  0  0  0  0  0
   -0.3360   -3.4610    4.8990 H   0  0  0  0  0  0  0  0  0  0  0  0
   -0.6960    1.2910   -3.7730 H   0  0  0  0  0  0  0  0  0  0  0  0
    0.1010    5.6860   -9.3630 H   0  0  0  0  0  0  0  0  0  0  0  0
    1.0570    0.1550   -2.6320 H   0  0  0  0  0  0  0  0  0  0  0  0
    3.3650    0.2890   -1.6710 H   0  0  0  0  0  0  0  0  0  0  0  0
    3.0040    4.5590   -1.3860 H   0  0  0  0  0  0  0  0  0  0  0  0
   -4.1560    4.0930   -5.2160 H   0  0  0  0  0  0  0  0  0  0  0  0
   -4.8620    2.6030   -5.8350 H   0  0  0  0  0  0  0  0  0  0  0  0
   -4.0390    4.7010   -7.2930 H   0  0  0  0  0  0  0  0  0  0  0  0
    1.9610    6.4980   -4.7400 H   0  0  0  0  0  0  0  0  0  0  0  0
    1.2140    8.6610   -5.7530 H   0  0  0  0  0  0  0  0  0  0  0  0
   -0.4560    8.0510   -5.8470 H   0  0  0  0  0  0  0  0  0  0  0  0
    1.9760    6.7030   -7.1650 H   0  0  0  0  0  0  0  0  0  0  0  0
    0.7230    7.6780   -7.9640 H   0  0  0  0  0  0  0  0  0  0  0  0
    4.6600    2.4420   -0.0370 H   0  0  0  0  0  0  0  0  0  0  0  0
   -3.4200    4.7430   -9.8800 H   0  0  0  0  0  0  0  0  0  0  0  0
   -2.7530    1.9830   -2.9800 H   0  0  0  0  0  0  0  0  0  0  0  0
   -4.2060    2.7300   -3.4760 H   0  0  0  0  0  0  0  0  0  0  0  0
   -5.1130    0.7600   -4.4730 H   0  0  0  0  0  0  0  0  0  0  0  0
   -3.5780   -0.1130   -4.4000 H   0  0  0  0  0  0  0  0  0  0  0  0
    1.1990    8.5360   -3.4380 H   0  0  0  0  0  0  0  0  0  0  0  0
    1.2110    7.0650   -2.5120 H   0  0  0  0  0  0  0  0  0  0  0  0
   -0.7950    8.5790   -2.1960 H   0  0  0  0  0  0  0  0  0  0  0  0
   -1.2970    8.2140   -3.8470 H   0  0  0  0  0  0  0  0  0  0  0  0
   -1.2580    6.9330   -2.6240 H   0  0  0  0  0  0  0  0  0  0  0  0
   -4.5570    3.3090   -9.2050 H   0  0  0  0  0  0  0  0  0  0  0  0
   -3.7800    1.8910   -8.4040 H   0  0  0  0  0  0  0  0  0  0  0  0
   -5.3460    2.5670   -7.8120 H   0  0  0  0  0  0  0  0  0  0  0  0
   -3.2950    0.7260   -6.4950 H   0  0  0  0  0  0  0  0  0  0  0  0
   -1.8650    0.4180   -5.5010 H   0  0  0  0  0  0  0  0  0  0  0  0
   -1.7380    1.4880   -6.8840 H   0  0  0  0  0  0  0  0  0  0  0  0
  1  2  2  0
  1  5  1  0
  1 11  1  0
  2  6  1  0
  2 14  1  0
  3  4  1  0
  3  7  2  0
  3 22  1  0
  4  8  2  0
  4 21  1  0
  5  9  2  0
  5 15  1  0
  6 10  2  0
  6 18  1  0
  7  9  1  0
  7149  1  0
  8 10  1  0
  8150  1  0
  9 10  1  0
 11 12  2  0
 11 17  1  0
 12 13  1  0
 12151  1  0
 13 14  2  0
 13 25  1  0
 14 20  1  0
 15 16  1  0
 15152  1  0
 15153  1  0
 16 17  1  0
 16154  1  0
 16155  1  0
 17156  1  0
 17157  1  0
 18 19  1  0
 18158  1  0
 18159  1  0
 19 20  1  0
 19160  1  0
 19161  1  0
 20 23  1  0
 20162  1  1
 21 54  1  0
 22116  1  0
 23 24  1  0
 23163  1  0
 23164  1  0
 24 76  1  0
 24165  1  0
 24166  1  0
 25167  1  0
 25168  1  0
 25169  1  0
 26 27  2  0
 26 29  1  0
 26 44  1  0
 27 32  1  0
 27 47  1  0
 28 30  1  0
 28 31  2  0
 28 51  1  0
 29 38  2  0
 29 53  1  0
 30 36  1  0
 30170  1  0
 30171  1  0
 31 37  1  0
 31172  1  0
 32 40  2  0
 32 42  1  0
 33 36  2  0
 33 39  1  0
 33173  1  0
 34 38  1  0
 34 39  1  0
 34174  1  0
 35 37  2  0
 35 41  1  0
 35 43  1  0
 36 37  1  0
 38 40  1  0
 39 41  2  0
 40 41  1  0
 42 43  2  0
 42175  1  0
 43176  1  0
 44 45  2  0
 44 54  1  0
 45 46  1  0
 45 48  1  0
 46 47  2  0
 46177  1  0
 47178  1  0
 48 49  2  0
 48 50  1  0
 50 52  1  0
 50179  1  0
 50180  1  0
 51181  1  0
 51182  1  0
 51183  1  0
 52184  1  0
 52185  1  0
 52186  1  0
 53187  1  0
 53188  1  0
 53189  1  0
 54190  1  0
 54191  1  0
 55 56  2  0
 55 58  1  0
 55 64  1  0
 56 59  1  0
 56 67  1  0
 57 60  2  0
 57 61  1  0
 57192  1  0
 58 62  2  0
 58 73  1  0
 59 63  2  0
 59 78  1  0
 60 62  1  0
 60 75  1  0
 61 63  1  0
 61 79  1  0
 61193  1  1
 62 63  1  0
 64 65  2  0
 64 68  1  0
 65 66  1  0
 65 71  1  0
 66 67  2  0
 66 76  1  0
 67194  1  0
 68 69  2  0
 68 72  1  0
 69 70  1  0
 69195  1  0
 70 71  2  0
 70196  1  0
 71 77  1  0
 72 73  2  0
 72197  1  0
 73 74  1  0
 74 75  1  0
 74198  1  0
 74199  1  0
 75 80  1  0
 75200  1  6
 77201  1  0
 78202  1  0
 79203  1  0
 79204  1  0
 79205  1  0
 80206  1  0
 80207  1  0
 80208  1  0
 81 82  2  0
 81 84  1  0
 81 90  1  0
 82 85  1  0
 82 93  1  0
 83 86  2  0
 83 87  1  0
 83114  1  0
 84 88  2  0
 84 99  1  0
 85 89  2  0
 85104  1  0
 86 88  1  0
 86107  1  0
 87 89  1  0
 87209  1  0
 87210  1  0
 88 89  1  0
 90 91  2  0
 90 94  1  0
 91 92  1  0
 91 97  1  0
 92 93  2  0
 92100  1  0
 93103  1  0
 94 95  2  0
 94 98  1  0
 95 96  1  0
 95111  1  0
 96 97  2  0
 96108  1  0
 97211  1  0
 98 99  2  0
 98110  1  0
 99106  1  0
100101  2  0
100115  1  0
101102  1  0
101212  1  0
102103  2  0
102213  1  0
103105  1  0
104105  1  0
104214  1  0
104215  1  0
105216  1  0
105217  1  0
106107  1  0
106112  1  6
106116  1  0
107113  1  0
107218  1  1
108109  2  0
108219  1  0
110220  1  0
111221  1  0
112222  1  0
112223  1  0
112224  1  0
113225  1  0
113226  1  0
113227  1  0
114228  1  0
114229  1  0
114230  1  0
115144  1  0
115231  1  0
115232  1  0
116233  1  0
116234  1  0
117118  2  0
117121  1  0
117127  1  0
118122  1  0
118130  1  0
119120  1  0
119123  2  0
119131  1  0
120124  2  0
120134  1  0
121125  2  0
121135  1  0
122126  2  0
122138  1  0
123125  1  0
123235  1  0
124126  1  0
125126  1  0
127128  2  0
127137  1  0
128129  1  0
128142  1  0
129130  2  0
129236  1  0
130140  1  0
131132  2  0
131237  1  0
132133  1  0
132238  1  0
133134  2  0
133141  1  0
134239  1  0
135136  1  0
135143  1  1
135148  1  0
136137  1  0
136240  1  0
136241  1  0
137147  1  0
137242  1  1
138139  1  0
138145  1  0
138243  1  6
139140  1  0
139244  1  0
139245  1  0
140246  1  0
140247  1  0
141248  1  0
142249  1  0
143144  1  0
143250  1  0
143251  1  0
144252  1  0
144253  1  0
145146  1  0
145254  1  0
145255  1  0
146256  1  0
146257  1  0
146258  1  0
147259  1  0
147260  1  0
147261  1  0
148262  1  0
148263  1  0
148264  1  0
M  END
