
     RDKit          3D

254291  0  0  0  0  0  0  0  0999 V2000
   -0.7110  -10.5150   -0.8110 C   0  0  0  0  0  0  0  0  0  0  0  0
   -1.1930  -11.8530   -0.9410 C   0  0  0  0  0  0  0  0  0  0  0  0
   -4.9830   -9.4560   -2.1720 C   0  0  0  0  0  0  0  0  0  0  0  0
   -1.5800   -9.4390   -1.0750 C   0  0  0  0  0  0  0  0  0  0  0  0
   -2.5060  -12.1030   -1.4020 C   0  0  0  0  0  0  0  0  0  0  0  0
   -3.9220   -8.7790   -1.7080 C   0  0  0  0  0  0  0  0  0  0  0  0
   -4.7290  -10.9550   -2.2080 C   0  0  0  0  0  0  0  0  0  0  0  0
   -2.8690   -9.7360   -1.4570 C   0  0  0  0  0  0  0  0  0  0  0  0
   -3.3300  -11.0290   -1.6750 C   0  0  0  0  0  0  0  0  0  0  0  0
    0.6330  -10.2470   -0.4380 C   0  0  0  0  0  0  0  0  0  0  0  0
    1.4910  -11.3260   -0.1110 C   0  0  0  0  0  0  0  0  0  0  0  0
    0.9780  -12.6400   -0.1970 C   0  0  0  0  0  0  0  0  0  0  0  0
   -0.3300  -12.9000   -0.6220 C   0  0  0  0  0  0  0  0  0  0  0  0
    1.1040   -8.9060   -0.4280 C   0  0  0  0  0  0  0  0  0  0  0  0
    2.4710   -8.6600   -0.1470 C   0  0  0  0  0  0  0  0  0  0  0  0
    3.2980   -9.7300    0.2290 C   0  0  0  0  0  0  0  0  0  0  0  0
    2.8250  -11.0490    0.2770 C   0  0  0  0  0  0  0  0  0  0  0  0
    0.1840   -7.8670   -0.7230 C   0  0  0  0  0  0  0  0  0  0  0  0
   -1.1690   -8.1030   -1.0050 C   0  0  0  0  0  0  0  0  0  0  0  0
   -2.1410   -6.9730   -1.3620 C   0  0  1  0  0  0  0  0  0  0  0  0
   -3.6560   -7.3620   -1.3400 C   0  0  0  0  0  0  0  0  0  0  0  0
   -1.9270   -5.6690   -0.5540 C   0  0  0  0  0  0  0  0  0  0  0  0
   -2.0820   -5.8050    0.9760 C   0  0  0  0  0  0  0  0  0  0  0  0
    3.7800  -12.1360    0.6940 C   0  0  0  0  0  0  0  0  0  0  0  0
    3.1080   -7.2900   -0.2940 C   0  0  0  0  0  0  0  0  0  0  0  0
   11.4240    1.9720    1.0100 C   0  0  0  0  0  0  0  0  0  0  0  0
   10.4470    2.2900    0.0390 C   0  0  0  0  0  0  0  0  0  0  0  0
    3.8270   -1.4970   -2.0770 C   0  0  0  0  0  0  0  0  0  0  0  0
   11.3160    0.7280    1.6880 C   0  0  0  0  0  0  0  0  0  0  0  0
    3.7380   -2.7530   -1.4940 C   0  0  0  0  0  0  0  0  0  0  0  0
    4.8950   -0.6500   -1.7760 C   0  0  0  0  0  0  0  0  0  0  0  0
    9.3140    1.4510   -0.1620 C   0  0  0  0  0  0  0  0  0  0  0  0
    4.6200   -4.5860    0.0280 C   0  0  2  0  0  0  0  0  0  0  0  0
    5.6960   -4.8540    1.0490 C   0  0  0  0  0  0  0  0  0  0  0  0
    7.6430   -4.3480    2.3880 C   0  0  0  0  0  0  0  0  0  0  0  0
    8.6610   -3.5190    2.6670 C   0  0  0  0  0  0  0  0  0  0  0  0
    9.9200   -1.3660    2.2270 C   0  0  0  0  0  0  0  0  0  0  0  0
    7.0310   -0.2110   -0.6120 C   0  0  0  0  0  0  0  0  0  0  0  0
    4.7040   -3.1770   -0.5650 C   0  0  0  0  0  0  0  0  0  0  0  0
    6.6740   -3.9950    1.3740 C   0  0  0  0  0  0  0  0  0  0  0  0
   10.1670   -0.1430    1.5200 C   0  0  0  0  0  0  0  0  0  0  0  0
    5.9070   -1.0590   -0.8740 C   0  0  0  0  0  0  0  0  0  0  0  0
    8.8410   -2.2300    1.9470 C   0  0  0  0  0  0  0  0  0  0  0  0
    9.1810    0.2310    0.5600 C   0  0  0  0  0  0  0  0  0  0  0  0
    8.0390   -0.6120    0.3060 C   0  0  0  0  0  0  0  0  0  0  0  0
    5.7900   -2.3210   -0.2510 C   0  0  0  0  0  0  0  0  0  0  0  0
    7.8900   -1.8540    0.9740 C   0  0  0  0  0  0  0  0  0  0  0  0
    6.7770   -2.6940    0.6740 C   0  0  0  0  0  0  0  0  0  0  0  0
    8.2740    1.8430   -1.0560 C   0  0  0  0  0  0  0  0  0  0  0  0
    7.1260    1.0340   -1.2720 C   0  0  0  0  0  0  0  0  0  0  0  0
    6.0700    1.4190   -2.1280 C   0  0  0  0  0  0  0  0  0  0  0  0
    4.9780    0.5960   -2.3820 C   0  0  0  0  0  0  0  0  0  0  0  0
   12.4920    2.8950    1.2570 C   0  0  0  0  0  0  0  0  0  0  0  0
   12.5970    4.0730    0.5090 C   0  0  0  0  0  0  0  0  0  0  0  0
   11.7030    4.3310   -0.5110 C   0  0  0  0  0  0  0  0  0  0  0  0
   10.6400    3.4580   -0.7360 C   0  0  0  0  0  0  0  0  0  0  0  0
    9.7760    3.6900   -1.9410 C   0  0  0  0  0  0  0  0  0  0  0  0
    8.3540    3.2230   -1.6920 C   0  0  0  0  0  0  0  0  0  0  0  0
   12.4900    0.3190    2.5720 C   0  0  0  0  0  0  0  0  0  0  0  0
   13.7750    1.1020    2.3400 C   0  0  0  0  0  0  0  0  0  0  0  0
   13.4910    2.5990    2.3680 C   0  0  1  0  0  0  0  0  0  0  0  0
   10.7290   -1.7030    3.4160 C   0  0  0  0  0  0  0  0  0  0  0  0
   11.5170   -2.6380    3.4320 O   0  0  0  0  0  0  0  0  0  0  0  0
    3.2240   -4.9050    0.6340 C   0  0  0  0  0  0  0  0  0  0  0  0
    2.9460   -6.3940    0.9370 C   0  0  0  0  0  0  0  0  0  0  0  0
   14.8150    3.3690    2.3130 C   0  0  0  0  0  0  0  0  0  0  0  0
   -3.4590    0.4430   -0.4230 C   0  0  0  0  0  0  0  0  0  0  0  0
   -4.6540    0.4900   -1.1810 C   0  0  0  0  0  0  0  0  0  0  0  0
   -2.3080    1.1610   -0.8600 C   0  0  0  0  0  0  0  0  0  0  0  0
   -4.6080    1.0830   -2.4720 C   0  0  0  0  0  0  0  0  0  0  0  0
   -1.7520    3.6490   -8.9030 C   0  0  0  0  0  0  0  0  0  0  0  0
   -2.9950    3.1630   -8.4370 C   0  0  0  0  0  0  0  0  0  0  0  0
    0.6480    4.3210   -8.0840 C   0  0  0  0  0  0  0  0  0  0  0  0
    1.1680    4.3320   -6.8340 C   0  0  0  0  0  0  0  0  0  0  0  0
   -4.3990    2.3500   -6.5250 C   0  0  0  0  0  0  0  0  0  0  0  0
   -4.4950    2.0020   -5.1580 C   0  0  0  0  0  0  0  0  0  0  0  0
   -1.1350    2.4540   -2.6620 C   0  0  0  0  0  0  0  0  0  0  0  0
    0.1160    3.5220   -4.5700 C   0  0  0  0  0  0  0  0  0  0  0  0
   -0.7310    3.8480   -7.9900 C   0  0  0  0  0  0  0  0  0  0  0  0
   -3.2090    2.8550   -7.0630 C   0  0  0  0  0  0  0  0  0  0  0  0
   -2.2780    1.7870   -2.1390 C   0  0  0  0  0  0  0  0  0  0  0  0
    0.1510    3.8100   -5.9240 C   0  0  0  0  0  0  0  0  0  0  0  0
   -1.0510    2.9240   -3.9890 C   0  0  0  0  0  0  0  0  0  0  0  0
   -3.4230    1.6860   -2.9610 C   0  0  0  0  0  0  0  0  0  0  0  0
   -3.3760    2.1480   -4.3020 C   0  0  0  0  0  0  0  0  0  0  0  0
   -0.9590    3.5610   -6.6710 C   0  0  0  0  0  0  0  0  0  0  0  0
   -2.1930    2.7190   -4.8060 C   0  0  0  0  0  0  0  0  0  0  0  0
   -2.1480    3.0520   -6.1700 C   0  0  0  0  0  0  0  0  0  0  0  0
   -5.7440    1.0250   -3.3060 C   0  0  0  0  0  0  0  0  0  0  0  0
   -5.6770    1.4760   -4.6330 C   0  0  0  0  0  0  0  0  0  0  0  0
   -3.4060   -0.3600    0.7470 C   0  0  0  0  0  0  0  0  0  0  0  0
   -4.5930   -0.8040    1.3480 C   0  0  0  0  0  0  0  0  0  0  0  0
   -5.7620   -0.7540    0.5630 C   0  0  0  0  0  0  0  0  0  0  0  0
   -5.8560   -0.1010   -0.7010 C   0  0  0  0  0  0  0  0  0  0  0  0
   -7.0480    0.0110   -1.5010 C   0  0  0  0  0  0  0  0  0  0  0  0
   -6.9390    0.5020   -2.8140 C   0  0  0  0  0  0  0  0  0  0  0  0
   -1.0640    1.2440    0.0410 C   0  0  0  0  0  0  0  0  0  0  0  0
   -1.1130    0.4320    1.3580 C   0  0  2  0  0  0  0  0  0  0  0  0
   -1.9820   -0.8010    1.1010 C   0  0  1  0  0  0  0  0  0  0  0  0
   -6.8110   -1.5160    1.0340 O   0  0  0  0  0  0  0  0  0  0  0  0
    1.2360    3.8000   -3.8310 O   0  0  0  0  0  0  0  0  0  0  0  0
   -1.6750   -2.0290    1.9870 C   0  0  0  0  0  0  0  0  0  0  0  0
   -2.3000   -3.2990    1.3730 C   0  0  0  0  0  0  0  0  0  0  0  0
   -1.5540    1.2880    2.5430 C   0  0  0  0  0  0  0  0  0  0  0  0
    1.2820    4.7190   -9.3610 C   0  0  0  0  0  0  0  0  0  0  0  0
   -1.5570   -4.5800    1.7450 C   0  0  0  0  0  0  0  0  0  0  0  0
   -4.7020   -1.2480    2.8020 C   0  0  0  0  0  0  0  0  0  0  0  0
   -8.4090   -0.4250   -0.9790 C   0  0  0  0  0  0  0  0  0  0  0  0
   -9.8650    0.3790   -1.7200 S   0  0  0  0  0  0  0  0  0  0  0  0
   -3.1170    3.4100    5.8310 C   0  0  0  0  0  0  0  0  0  0  0  0
   -7.9600    4.7280    0.3780 C   0  0  0  0  0  0  0  0  0  0  0  0
   -2.6810    4.7470    5.7630 C   0  0  0  0  0  0  0  0  0  0  0  0
   -7.3370    5.9600    0.0970 C   0  0  0  0  0  0  0  0  0  0  0  0
   -4.1010    2.9410    4.9330 C   0  0  0  0  0  0  0  0  0  0  0  0
   -7.4890    3.9310    1.4250 C   0  0  0  0  0  0  0  0  0  0  0  0
   -2.7370    7.0120    4.7180 C   0  0  0  0  0  0  0  0  0  0  0  0
   -5.4870    7.6680    0.6280 C   0  0  2  0  0  0  0  0  0  0  0  0
   -3.1880    7.8010    3.7230 C   0  0  0  0  0  0  0  0  0  0  0  0
   -4.5360    8.1040    1.7170 C   0  0  0  0  0  0  0  0  0  0  0  0
   -5.8410    3.4350    3.2250 C   0  0  0  0  0  0  0  0  0  0  0  0
   -3.2400    5.6020    4.7830 C   0  0  0  0  0  0  0  0  0  0  0  0
   -6.2410    6.3680    0.9220 C   0  0  0  0  0  0  0  0  0  0  0  0
   -4.1640    7.3310    2.7490 C   0  0  0  0  0  0  0  0  0  0  0  0
   -4.7290    3.8370    4.0210 C   0  0  0  0  0  0  0  0  0  0  0  0
   -6.3880    4.2910    2.2300 C   0  0  0  0  0  0  0  0  0  0  0  0
   -4.2430    5.1480    3.8950 C   0  0  0  0  0  0  0  0  0  0  0  0
   -5.7940    5.5530    2.0030 C   0  0  0  0  0  0  0  0  0  0  0  0
   -4.7560    5.9770    2.8700 C   0  0  0  0  0  0  0  0  0  0  0  0
   -2.5480    2.5290    6.7860 C   0  0  0  0  0  0  0  0  0  0  0  0
   -1.5680    3.0000    7.6930 C   0  0  0  0  0  0  0  0  0  0  0  0
   -1.1440    4.3340    7.6170 C   0  0  0  0  0  0  0  0  0  0  0  0
   -1.6880    5.2000    6.6610 C   0  0  0  0  0  0  0  0  0  0  0  0
   -1.2280    6.6000    6.6080 C   0  0  0  0  0  0  0  0  0  0  0  0
   -1.7480    7.4520    5.7040 C   0  0  0  0  0  0  0  0  0  0  0  0
   -9.0340    4.2740   -0.4010 C   0  0  0  0  0  0  0  0  0  0  0  0
   -9.4920    5.0180   -1.4770 C   0  0  0  0  0  0  0  0  0  0  0  0
   -8.9090    6.2360   -1.7880 C   0  0  0  0  0  0  0  0  0  0  0  0
   -7.8500    6.7000   -1.0030 C   0  0  0  0  0  0  0  0  0  0  0  0
   -2.9440    1.1750    6.8230 C   0  0  0  0  0  0  0  0  0  0  0  0
   -2.4020    0.3260    7.7970 C   0  0  0  0  0  0  0  0  0  0  0  0
   -1.4640    0.8000    8.7140 C   0  0  0  0  0  0  0  0  0  0  0  0
   -1.0440    2.1280    8.6540 C   0  0  0  0  0  0  0  0  0  0  0  0
   -3.8550    0.6970    5.8710 C   0  0  0  0  0  0  0  0  0  0  0  0
   -4.4110    1.5550    4.9160 C   0  0  0  0  0  0  0  0  0  0  0  0
   -5.2260    1.0770    3.7210 C   0  0  2  0  0  0  0  0  0  0  0  0
   -6.3970    2.0440    3.5050 C   0  0  0  0  0  0  0  0  0  0  0  0
   -1.2770    8.8620    5.8150 C   0  0  0  0  0  0  0  0  0  0  0  0
   -0.1230    9.1660    5.5180 O   0  0  0  0  0  0  0  0  0  0  0  0
   -2.2700    9.8780    6.3180 C   0  0  0  0  0  0  0  0  0  0  0  0
  -10.5240    4.5100   -2.2090 O   0  0  0  0  0  0  0  0  0  0  0  0
   -5.6800   -0.3960    3.6550 C   0  0  0  0  0  0  0  0  0  0  0  0
   -4.7090    7.5880   -0.7000 C   0  0  0  0  0  0  0  0  0  0  0  0
   -5.9360   -9.0140   -2.4290 H   0  0  0  0  0  0  0  0  0  0  0  0
   -2.8660  -13.1180   -1.5450 H   0  0  0  0  0  0  0  0  0  0  0  0
   -5.4340  -11.4830   -1.5590 H   0  0  0  0  0  0  0  0  0  0  0  0
   -4.7820  -11.3320   -3.2330 H   0  0  0  0  0  0  0  0  0  0  0  0
    1.6050  -13.4960    0.0390 H   0  0  0  0  0  0  0  0  0  0  0  0
   -0.6620  -13.9330   -0.6970 H   0  0  0  0  0  0  0  0  0  0  0  0
    4.3420   -9.5320    0.4740 H   0  0  0  0  0  0  0  0  0  0  0  0
    0.5370   -6.8390   -0.7290 H   0  0  0  0  0  0  0  0  0  0  0  0
   -1.9120   -6.7350   -2.4140 H   0  0  0  0  0  0  0  0  0  0  0  0
   -4.2200   -6.6850   -1.9920 H   0  0  0  0  0  0  0  0  0  0  0  0
   -4.0560   -7.2240   -0.3280 H   0  0  0  0  0  0  0  0  0  0  0  0
   -0.9360   -5.2550   -0.7790 H   0  0  0  0  0  0  0  0  0  0  0  0
   -2.6470   -4.9290   -0.9220 H   0  0  0  0  0  0  0  0  0  0  0  0
   -1.5360   -6.6830    1.3380 H   0  0  0  0  0  0  0  0  0  0  0  0
   -3.1360   -5.9620    1.2340 H   0  0  0  0  0  0  0  0  0  0  0  0
    4.7130  -11.7210    1.0930 H   0  0  0  0  0  0  0  0  0  0  0  0
    4.0330  -12.7700   -0.1630 H   0  0  0  0  0  0  0  0  0  0  0  0
    3.3410  -12.7480    1.4900 H   0  0  0  0  0  0  0  0  0  0  0  0
    2.7020   -6.8030   -1.1890 H   0  0  0  0  0  0  0  0  0  0  0  0
    4.1750   -7.4210   -0.5110 H   0  0  0  0  0  0  0  0  0  0  0  0
    3.0620   -1.1940   -2.7910 H   0  0  0  0  0  0  0  0  0  0  0  0
    2.9180   -3.4030   -1.7870 H   0  0  0  0  0  0  0  0  0  0  0  0
    4.8080   -5.2600   -0.8180 H   0  0  0  0  0  0  0  0  0  0  0  0
    5.6590   -5.8230    1.5450 H   0  0  0  0  0  0  0  0  0  0  0  0
    7.5470   -5.2900    2.9210 H   0  0  0  0  0  0  0  0  0  0  0  0
    9.3770   -3.8260    3.4230 H   0  0  0  0  0  0  0  0  0  0  0  0
    6.0650    2.3800   -2.6370 H   0  0  0  0  0  0  0  0  0  0  0  0
    4.2050    0.9420   -3.0650 H   0  0  0  0  0  0  0  0  0  0  0  0
   13.3940    4.7930    0.6820 H   0  0  0  0  0  0  0  0  0  0  0  0
   11.8350    5.2180   -1.1280 H   0  0  0  0  0  0  0  0  0  0  0  0
   10.2150    3.1340   -2.7820 H   0  0  0  0  0  0  0  0  0  0  0  0
    9.7600    4.7500   -2.2200 H   0  0  0  0  0  0  0  0  0  0  0  0
    7.8330    3.9310   -1.0340 H   0  0  0  0  0  0  0  0  0  0  0  0
    7.8660    3.2520   -2.6720 H   0  0  0  0  0  0  0  0  0  0  0  0
   12.7540   -0.7240    2.3760 H   0  0  0  0  0  0  0  0  0  0  0  0
   12.1990    0.4380    3.6220 H   0  0  0  0  0  0  0  0  0  0  0  0
   14.2180    0.8160    1.3730 H   0  0  0  0  0  0  0  0  0  0  0  0
   14.5050    0.8290    3.1140 H   0  0  0  0  0  0  0  0  0  0  0  0
   12.9980    2.8570    3.3160 H   0  0  0  0  0  0  0  0  0  0  0  0
   10.5700   -1.0560    4.2950 H   0  0  0  0  0  0  0  0  0  0  0  0
    2.4270   -4.5800   -0.0450 H   0  0  0  0  0  0  0  0  0  0  0  0
    3.0790   -4.3250    1.5530 H   0  0  0  0  0  0  0  0  0  0  0  0
    1.9200   -6.4640    1.3230 H   0  0  0  0  0  0  0  0  0  0  0  0
    3.5890   -6.7540    1.7480 H   0  0  0  0  0  0  0  0  0  0  0  0
   14.6570    4.4410    2.4850 H   0  0  0  0  0  0  0  0  0  0  0  0
   15.3120    3.2490    1.3460 H   0  0  0  0  0  0  0  0  0  0  0  0
   15.5040    3.0220    3.0910 H   0  0  0  0  0  0  0  0  0  0  0  0
   -1.6020    3.8490   -9.9600 H   0  0  0  0  0  0  0  0  0  0  0  0
   -3.7960    2.9990   -9.1560 H   0  0  0  0  0  0  0  0  0  0  0  0
    2.1570    4.6280   -6.5310 H   0  0  0  0  0  0  0  0  0  0  0  0
   -5.2540    2.1920   -7.1840 H   0  0  0  0  0  0  0  0  0  0  0  0
   -0.2470    2.5350   -2.0400 H   0  0  0  0  0  0  0  0  0  0  0  0
   -6.5520    1.3870   -5.2740 H   0  0  0  0  0  0  0  0  0  0  0  0
   -7.8070    0.5100   -3.4720 H   0  0  0  0  0  0  0  0  0  0  0  0
   -0.2210    0.8410   -0.5400 H   0  0  0  0  0  0  0  0  0  0  0  0
   -0.8350    2.2940    0.2620 H   0  0  0  0  0  0  0  0  0  0  0  0
   -0.0890    0.1070    1.5790 H   0  0  0  0  0  0  0  0  0  0  0  0
   -1.6040   -1.1830    0.1360 H   0  0  0  0  0  0  0  0  0  0  0  0
   -6.9860   -2.1700    0.3350 H   0  0  0  0  0  0  0  0  0  0  0  0
    0.9340    4.0600   -2.9410 H   0  0  0  0  0  0  0  0  0  0  0  0
   -1.9610   -1.9030    3.0320 H   0  0  0  0  0  0  0  0  0  0  0  0
   -0.5850   -2.1580    2.0040 H   0  0  0  0  0  0  0  0  0  0  0  0
   -3.3480   -3.3970    1.6760 H   0  0  0  0  0  0  0  0  0  0  0  0
   -2.3030   -3.1940    0.2850 H   0  0  0  0  0  0  0  0  0  0  0  0
   -2.4640    1.8570    2.3280 H   0  0  0  0  0  0  0  0  0  0  0  0
   -0.7710    2.0180    2.7910 H   0  0  0  0  0  0  0  0  0  0  0  0
   -1.7190    0.6670    3.4280 H   0  0  0  0  0  0  0  0  0  0  0  0
    1.3260    3.8630  -10.0440 H   0  0  0  0  0  0  0  0  0  0  0  0
    2.3050    5.0750   -9.2080 H   0  0  0  0  0  0  0  0  0  0  0  0
    0.7110    5.5190   -9.8440 H   0  0  0  0  0  0  0  0  0  0  0  0
   -1.6600   -4.7630    2.8230 H   0  0  0  0  0  0  0  0  0  0  0  0
   -0.4870   -4.4660    1.5370 H   0  0  0  0  0  0  0  0  0  0  0  0
   -3.7400   -1.1770    3.3030 H   0  0  0  0  0  0  0  0  0  0  0  0
   -5.0110   -2.3000    2.8350 H   0  0  0  0  0  0  0  0  0  0  0  0
   -8.4990   -0.1930    0.0870 H   0  0  0  0  0  0  0  0  0  0  0  0
   -8.5200   -1.5020   -1.1240 H   0  0  0  0  0  0  0  0  0  0  0  0
  -10.2870    0.9960   -0.6070 H   0  0  0  0  0  0  0  0  0  0  0  0
   -8.0080    2.9930    1.6010 H   0  0  0  0  0  0  0  0  0  0  0  0
   -6.2440    8.4630    0.5580 H   0  0  0  0  0  0  0  0  0  0  0  0
   -2.8170    8.8140    3.5920 H   0  0  0  0  0  0  0  0  0  0  0  0
   -4.1210    9.1020    1.6040 H   0  0  0  0  0  0  0  0  0  0  0  0
   -0.3860    4.7020    8.3070 H   0  0  0  0  0  0  0  0  0  0  0  0
   -0.4750    6.9190    7.3260 H   0  0  0  0  0  0  0  0  0  0  0  0
   -9.5130    3.3220   -0.1850 H   0  0  0  0  0  0  0  0  0  0  0  0
   -9.2620    6.8360   -2.6180 H   0  0  0  0  0  0  0  0  0  0  0  0
   -7.4240    7.6650   -1.2700 H   0  0  0  0  0  0  0  0  0  0  0  0
   -2.7040   -0.7180    7.8510 H   0  0  0  0  0  0  0  0  0  0  0  0
   -1.0590    0.1350    9.4710 H   0  0  0  0  0  0  0  0  0  0  0  0
   -0.2950    2.4740    9.3660 H   0  0  0  0  0  0  0  0  0  0  0  0
   -4.0940   -0.3650    5.8640 H   0  0  0  0  0  0  0  0  0  0  0  0
   -4.5560    1.2360    2.8660 H   0  0  0  0  0  0  0  0  0  0  0  0
   -6.9860    1.6690    2.6640 H   0  0  0  0  0  0  0  0  0  0  0  0
   -7.0540    2.0880    4.3830 H   0  0  0  0  0  0  0  0  0  0  0  0
   -1.7530   10.6010    6.9590 H   0  0  0  0  0  0  0  0  0  0  0  0
   -2.7270   10.3940    5.4720 H   0  0  0  0  0  0  0  0  0  0  0  0
   -3.0480    9.3940    6.9160 H   0  0  0  0  0  0  0  0  0  0  0  0
  -10.6720    5.0810   -2.9770 H   0  0  0  0  0  0  0  0  0  0  0  0
   -5.7750   -0.8360    4.6520 H   0  0  0  0  0  0  0  0  0  0  0  0
   -6.6830   -0.4610    3.2260 H   0  0  0  0  0  0  0  0  0  0  0  0
   -3.6310    7.7430   -0.5750 H   0  0  0  0  0  0  0  0  0  0  0  0
   -5.0520    8.3790   -1.3790 H   0  0  0  0  0  0  0  0  0  0  0  0
   -4.8380    6.6340   -1.2230 H   0  0  0  0  0  0  0  0  0  0  0  0
  1  2  2  0
  1  4  1  0
  1 10  1  0
  2  5  1  0
  2 13  1  0
  3  6  2  0
  3  7  1  0
  3153  1  0
  4  8  2  0
  4 19  1  0
  5  9  2  0
  5154  1  0
  6  8  1  0
  6 21  1  0
  7  9  1  0
  7155  1  0
  7156  1  0
  8  9  1  0
 10 11  2  0
 10 14  1  0
 11 12  1  0
 11 17  1  0
 12 13  2  0
 12157  1  0
 13158  1  0
 14 15  2  0
 14 18  1  0
 15 16  1  0
 15 25  1  0
 16 17  2  0
 16159  1  0
 17 24  1  0
 18 19  2  0
 18160  1  0
 19 20  1  0
 20 21  1  0
 20 22  1  0
 20161  1  6
 21162  1  0
 21163  1  0
 22 23  1  0
 22164  1  0
 22165  1  0
 23106  1  0
 23166  1  0
 23167  1  0
 24168  1  0
 24169  1  0
 24170  1  0
 25 65  1  0
 25171  1  0
 25172  1  0
 26 27  2  0
 26 29  1  0
 26 53  1  0
 27 32  1  0
 27 56  1  0
 28 30  2  0
 28 31  1  0
 28173  1  0
 29 41  2  0
 29 59  1  0
 30 39  1  0
 30174  1  0
 31 42  2  0
 31 52  1  0
 32 44  2  0
 32 49  1  0
 33 34  1  0
 33 39  1  0
 33 64  1  0
 33175  1  6
 34 40  2  0
 34176  1  0
 35 36  2  0
 35 40  1  0
 35177  1  0
 36 43  1  0
 36178  1  0
 37 41  1  0
 37 43  2  0
 37 62  1  0
 38 42  1  0
 38 45  2  0
 38 50  1  0
 39 46  2  0
 40 48  1  0
 41 44  1  0
 42 46  1  0
 43 47  1  0
 44 45  1  0
 45 47  1  0
 46 48  1  0
 47 48  2  0
 49 50  2  0
 49 58  1  0
 50 51  1  0
 51 52  2  0
 51179  1  0
 52180  1  0
 53 54  2  0
 53 61  1  0
 54 55  1  0
 54181  1  0
 55 56  2  0
 55182  1  0
 56 57  1  0
 57 58  1  0
 57183  1  0
 57184  1  0
 58185  1  0
 58186  1  0
 59 60  1  0
 59187  1  0
 59188  1  0
 60 61  1  0
 60189  1  0
 60190  1  0
 61 66  1  0
 61191  1  1
 62 63  2  0
 62192  1  0
 64 65  1  0
 64193  1  0
 64194  1  0
 65195  1  0
 65196  1  0
 66197  1  0
 66198  1  0
 66199  1  0
 67 68  2  0
 67 69  1  0
 67 91  1  0
 68 70  1  0
 68 94  1  0
 69 81  2  0
 69 97  1  0
 70 84  2  0
 70 89  1  0
 71 72  2  0
 71 79  1  0
 71200  1  0
 72 80  1  0
 72201  1  0
 73 74  2  0
 73 79  1  0
 73105  1  0
 74 82  1  0
 74202  1  0
 75 76  1  0
 75 80  2  0
 75203  1  0
 76 85  2  0
 76 90  1  0
 77 81  1  0
 77 83  2  0
 77204  1  0
 78 82  2  0
 78 83  1  0
 78101  1  0
 79 86  2  0
 80 88  1  0
 81 84  1  0
 82 86  1  0
 83 87  1  0
 84 85  1  0
 85 87  1  0
 86 88  1  0
 87 88  2  0
 89 90  2  0
 89 96  1  0
 90205  1  0
 91 92  2  0
 91 99  1  0
 92 93  1  0
 92107  1  0
 93 94  2  0
 93100  1  0
 94 95  1  0
 95 96  2  0
 95108  1  0
 96206  1  0
 97 98  1  0
 97207  1  0
 97208  1  0
 98 99  1  0
 98104  1  0
 98209  1  1
 99102  1  0
 99210  1  6
100211  1  0
101212  1  0
102103  1  0
102213  1  0
102214  1  0
103106  1  0
103215  1  0
103216  1  0
104217  1  0
104218  1  0
104219  1  0
105220  1  0
105221  1  0
105222  1  0
106223  1  0
106224  1  0
107151  1  0
107225  1  0
107226  1  0
108109  1  0
108227  1  0
108228  1  0
109229  1  0
110112  2  0
110114  1  0
110129  1  0
111113  1  0
111115  2  0
111135  1  0
112121  1  0
112132  1  0
113122  2  0
113138  1  0
114124  2  0
114144  1  0
115125  1  0
115230  1  0
116118  2  0
116121  1  0
116134  1  0
117119  1  0
117122  1  0
117152  1  0
117231  1  6
118123  1  0
118232  1  0
119123  2  0
119233  1  0
120124  1  0
120125  2  0
120146  1  0
121126  2  0
122127  1  0
123128  1  0
124126  1  0
125127  1  0
126128  1  0
127128  2  0
129130  2  0
129139  1  0
130131  1  0
130142  1  0
131132  2  0
131234  1  0
132133  1  0
133134  2  0
133235  1  0
134147  1  0
135136  2  0
135236  1  0
136137  1  0
136150  1  0
137138  2  0
137237  1  0
138238  1  0
139140  2  0
139143  1  0
140141  1  0
140239  1  0
141142  2  0
141240  1  0
142241  1  0
143144  2  0
143242  1  0
144145  1  0
145146  1  0
145151  1  0
145243  1  6
146244  1  0
146245  1  0
147148  2  0
147149  1  0
149246  1  0
149247  1  0
149248  1  0
150249  1  0
151250  1  0
151251  1  0
152252  1  0
152253  1  0
152254  1  0
M  END
