
     RDKit          3D

241269  0  0  0  0  0  0  0  0999 V2000
    5.2710   -1.1020    1.1360 C   0  0  0  0  0  0  0  0  0  0  0  0
    4.8660   -2.1440    2.0230 C   0  0  0  0  0  0  0  0  0  0  0  0
    5.1790    1.2710    5.1530 C   0  0  0  0  0  0  0  0  0  0  0  0
    5.4220    0.2310    1.6310 C   0  0  0  0  0  0  0  0  0  0  0  0
    4.6170   -1.8740    3.4050 C   0  0  0  0  0  0  0  0  0  0  0  0
    5.3100    1.6970    3.8510 C   0  0  0  0  0  0  0  0  0  0  0  0
    5.0110   -0.0760    5.1440 N   0  0  0  0  0  0  0  0  0  0  0  0
    5.2570    0.5070    3.0140 C   0  0  0  0  0  0  0  0  0  0  0  0
    4.9310   -0.5610    3.8520 C   0  0  0  0  0  0  0  0  0  0  0  0
    5.5220   -1.3930   -0.2480 C   0  0  0  0  0  0  0  0  0  0  0  0
    5.2620   -2.6760   -0.7720 C   0  0  0  0  0  0  0  0  0  0  0  0
    4.9080   -3.6950    0.1340 C   0  0  0  0  0  0  0  0  0  0  0  0
    4.7340   -3.4530    1.5020 C   0  0  0  0  0  0  0  0  0  0  0  0
    6.0610   -0.4180   -1.1350 C   0  0  0  0  0  0  0  0  0  0  0  0
    6.2650   -0.6750   -2.5040 C   0  0  0  0  0  0  0  0  0  0  0  0
    5.8840   -1.9000   -3.0310 C   0  0  0  0  0  0  0  0  0  0  0  0
    5.3970   -2.8770   -2.1710 C   0  0  0  0  0  0  0  0  0  0  0  0
    5.7050    1.3260    0.6240 C   0  0  0  0  0  0  0  0  0  0  0  0
    6.5640    0.8730   -0.5380 C   0  0  0  0  0  0  0  0  0  0  0  0
    4.1480   -3.0070    4.3510 C   0  0  1  0  0  0  0  0  0  0  0  0
    3.4940   -4.1930    3.5700 C   0  0  2  0  0  0  0  0  0  0  0  0
    4.4110   -4.6180    2.4160 C   0  0  0  0  0  0  0  0  0  0  0  0
    2.0680   -4.0470    2.9670 C   0  0  0  0  0  0  0  0  0  0  0  0
    1.8850   -3.9440    1.7470 O   0  0  0  0  0  0  0  0  0  0  0  0
    0.8510   -4.2320    3.8500 C   0  0  0  0  0  0  0  0  0  0  0  0
    4.7590   -4.9960   -0.2960 O   0  0  0  0  0  0  0  0  0  0  0  0
    6.8160    0.3540   -3.2340 O   0  0  0  0  0  0  0  0  0  0  0  0
    5.0270   -4.0850   -2.7190 O   0  0  0  0  0  0  0  0  0  0  0  0
    5.4450   -3.5220    5.0470 C   0  0  0  0  0  0  0  0  0  0  0  0
    5.4840    3.1370    3.5090 C   0  0  0  0  0  0  0  0  0  0  0  0
    3.2190   -2.5220    5.4910 C   0  0  0  0  0  0  0  0  0  0  0  0
   -0.0150   -1.6050   -1.2110 C   0  0  0  0  0  0  0  0  0  0  0  0
   -3.9310   -3.9320    0.4550 C   0  0  0  0  0  0  0  0  0  0  0  0
   -0.7010   -2.1090   -0.0510 C   0  0  0  0  0  0  0  0  0  0  0  0
   -2.6780   -3.3390    0.7910 C   0  0  0  0  0  0  0  0  0  0  0  0
   -0.5260   -1.8880   -2.5320 C   0  0  0  0  0  0  0  0  0  0  0  0
   -4.2880   -4.1600   -0.8970 C   0  0  0  0  0  0  0  0  0  0  0  0
   -2.4420   -3.2060   -3.8060 C   0  0  0  0  0  0  0  0  0  0  0  0
   -3.4560   -3.9350   -3.2920 C   0  0  0  0  0  0  0  0  0  0  0  0
   -1.8840   -2.8170   -0.2370 C   0  0  0  0  0  0  0  0  0  0  0  0
   -1.6690   -2.6500   -2.6800 C   0  0  0  0  0  0  0  0  0  0  0  0
   -3.4010   -3.7490   -1.8580 C   0  0  0  0  0  0  0  0  0  0  0  0
   -2.2930   -3.0500   -1.5370 C   0  0  0  0  0  0  0  0  0  0  0  0
    1.1520   -0.8730   -0.9760 C   0  0  0  0  0  0  0  0  0  0  0  0
    1.6010   -0.6130    0.3160 C   0  0  0  0  0  0  0  0  0  0  0  0
    0.9200   -1.1400    1.4190 C   0  0  0  0  0  0  0  0  0  0  0  0
   -0.2360   -1.9470    1.2730 C   0  0  0  0  0  0  0  0  0  0  0  0
   -0.9230   -2.6470    2.3360 C   0  0  0  0  0  0  0  0  0  0  0  0
   -2.1760   -3.2850    2.1030 C   0  0  0  0  0  0  0  0  0  0  0  0
   -4.8600   -4.2640    1.4510 C   0  0  0  0  0  0  0  0  0  0  0  0
   -6.0700   -4.8690    1.0850 C   0  0  0  0  0  0  0  0  0  0  0  0
   -6.3790   -5.1020   -0.2660 C   0  0  0  0  0  0  0  0  0  0  0  0
   -5.5030   -4.7350   -1.2920 C   0  0  0  0  0  0  0  0  0  0  0  0
   -4.5430   -3.8690    2.8960 C   0  0  1  0  0  0  0  0  0  0  0  0
   -3.0050   -4.0400    3.1500 C   0  0  1  0  0  0  0  0  0  0  0  0
   -5.8270   -4.7880   -2.7970 C   0  0  2  0  0  0  0  0  0  0  0  0
   -4.5480   -4.8740   -3.7600 C   0  0  2  0  0  0  0  0  0  0  0  0
   -2.6500   -5.5230    3.1030 C   0  0  0  0  0  0  0  0  0  0  0  0
   -3.3990   -6.4450    3.4390 O   0  0  0  0  0  0  0  0  0  0  0  0
   -0.1750   -2.7260    3.9870 S   0  0  0  0  0  0  0  0  0  0  0  0
    1.9060   -0.4240   -2.0320 O   0  0  0  0  0  0  0  0  0  0  0  0
   -7.6050   -5.6630   -0.4950 O   0  0  0  0  0  0  0  0  0  0  0  0
   -6.7250   -3.5820   -3.1460 C   0  0  0  0  0  0  0  0  0  0  0  0
   -3.9810   -6.3180   -3.6810 C   0  0  0  0  0  0  0  0  0  0  0  0
   -5.0670   -2.4240    3.1500 C   0  0  0  0  0  0  0  0  0  0  0  0
   -4.6580   -1.8170    4.5010 C   0  0  0  0  0  0  0  0  0  0  0  0
   -4.9060   -4.6110   -5.2320 C   0  0  0  0  0  0  0  0  0  0  0  0
   -5.2490   -0.4240    4.7760 C   0  0  0  0  0  0  0  0  0  0  0  0
   -2.6030    1.1340   -6.8910 C   0  0  0  0  0  0  0  0  0  0  0  0
   -1.9430    1.8230   -5.8240 C   0  0  0  0  0  0  0  0  0  0  0  0
    5.3460   -1.4660   -8.4820 C   0  0  0  0  0  0  0  0  0  0  0  0
   -1.8540    0.3540   -7.8220 C   0  0  0  0  0  0  0  0  0  0  0  0
    6.0540   -1.0730   -7.4470 N   0  0  0  0  0  0  0  0  0  0  0  0
   -0.5600    1.6900   -5.6480 C   0  0  0  0  0  0  0  0  0  0  0  0
    3.8530   -1.2130   -8.8150 C   0  0  1  0  0  0  0  0  0  0  0  0
    5.7640    0.2780   -5.3600 C   0  0  0  0  0  0  0  0  0  0  0  0
    4.6860    0.9860   -4.8570 N   0  0  0  0  0  0  0  0  0  0  0  0
    0.6010   -0.4430   -8.4560 C   0  0  0  0  0  0  0  0  0  0  0  0
    2.2160    1.2000   -5.5170 C   0  0  0  0  0  0  0  0  0  0  0  0
    5.3460   -0.2710   -6.5460 C   0  0  0  0  0  0  0  0  0  0  0  0
   -0.4790    0.2630   -7.6630 C   0  0  0  0  0  0  0  0  0  0  0  0
    3.5630    0.7860   -5.6310 C   0  0  0  0  0  0  0  0  0  0  0  0
    0.0980    0.9020   -6.5890 C   0  0  0  0  0  0  0  0  0  0  0  0
    3.1530   -0.4490   -7.7320 C   0  0  0  0  0  0  0  0  0  0  0  0
    1.4230    0.6720   -6.5430 C   0  0  0  0  0  0  0  0  0  0  0  0
    1.8170   -0.1180   -7.6140 C   0  0  0  0  0  0  0  0  0  0  0  0
    3.9880   -0.0000   -6.6980 C   0  0  0  0  0  0  0  0  0  0  0  0
    0.1840    2.3000   -4.6020 C   0  0  0  0  0  0  0  0  0  0  0  0
    1.5880    2.0240   -4.5490 C   0  0  0  0  0  0  0  0  0  0  0  0
   -4.0030    1.2480   -6.9880 C   0  0  0  0  0  0  0  0  0  0  0  0
   -4.7060    2.0790   -6.0980 C   0  0  0  0  0  0  0  0  0  0  0  0
   -4.0330    2.7740   -5.0880 C   0  0  0  0  0  0  0  0  0  0  0  0
   -2.6470    2.6390   -4.9250 C   0  0  0  0  0  0  0  0  0  0  0  0
   -1.9370    3.3040   -3.9060 C   0  0  0  0  0  0  0  0  0  0  0  0
   -0.5430    3.1320   -3.7190 C   0  0  0  0  0  0  0  0  0  0  0  0
   -2.5540   -0.3040   -8.9790 C   0  0  0  0  0  0  0  0  0  0  0  0
   -3.9740   -0.6980   -8.5900 C   0  0  0  0  0  0  0  0  0  0  0  0
   -4.7580    0.5020   -8.0600 C   0  0  0  0  0  0  0  0  0  0  0  0
    3.7370   -0.4950  -10.1500 C   0  0  0  0  0  0  0  0  0  0  0  0
    4.0390    0.6930  -10.2960 O   0  0  0  0  0  0  0  0  0  0  0  0
    3.2570   -1.2940  -11.3420 C   0  0  0  0  0  0  0  0  0  0  0  0
    4.4180   -1.9440  -12.0600 C   0  0  0  0  0  0  0  0  0  0  0  0
    7.0550    0.1860   -4.6370 C   0  0  0  0  0  0  0  0  0  0  0  0
    0.1060    3.9100   -2.6080 C   0  0  0  0  0  0  0  0  0  0  0  0
   -2.8740    4.9040    2.5000 C   0  0  0  0  0  0  0  0  0  0  0  0
   -3.1940    3.8710    3.4170 C   0  0  0  0  0  0  0  0  0  0  0  0
   -2.1790    8.0600    6.2730 C   0  0  0  0  0  0  0  0  0  0  0  0
   -3.0690    7.3340    7.0670 C   0  0  0  0  0  0  0  0  0  0  0  0
   -2.5740    6.1940    3.0040 C   0  0  0  0  0  0  0  0  0  0  0  0
   -3.4260    4.2360    4.7820 C   0  0  0  0  0  0  0  0  0  0  0  0
   -2.0630    7.6700    4.9300 C   0  0  0  0  0  0  0  0  0  0  0  0
   -3.6350    6.1210    6.5640 C   0  0  0  0  0  0  0  0  0  0  0  0
   -2.6330    6.4890    4.3950 C   0  0  0  0  0  0  0  0  0  0  0  0
   -3.2570    5.5880    5.2740 C   0  0  0  0  0  0  0  0  0  0  0  0
   -2.8150    4.6240    1.1070 C   0  0  0  0  0  0  0  0  0  0  0  0
   -3.0010    3.3170    0.6700 C   0  0  0  0  0  0  0  0  0  0  0  0
   -3.1940    2.2810    1.5650 C   0  0  0  0  0  0  0  0  0  0  0  0
   -3.2720    2.5180    2.9460 C   0  0  0  0  0  0  0  0  0  0  0  0
   -2.1730    7.2850    2.0200 C   0  0  0  0  0  0  0  0  0  0  0  0
   -2.8290    7.0830    0.6610 C   0  0  0  0  0  0  0  0  0  0  0  0
   -2.4760    5.7130    0.1180 C   0  0  0  0  0  0  0  0  0  0  0  0
   -3.7930    3.1100    5.7260 C   0  0  0  0  0  0  0  0  0  0  0  0
   -3.0540    1.8340    5.3620 C   0  0  0  0  0  0  0  0  0  0  0  0
   -3.3860    1.3380    3.9440 C   0  0  2  0  0  0  0  0  0  0  0  0
   -1.3860    9.2620    6.7970 C   0  0  2  0  0  0  0  0  0  0  0  0
   -1.5020    9.3970    8.3330 C   0  0  0  0  0  0  0  0  0  0  0  0
   -2.9390    9.2190    8.7870 C   0  0  0  0  0  0  0  0  0  0  0  0
   -3.4080    7.8050    8.4710 C   0  0  0  0  0  0  0  0  0  0  0  0
   -1.8320   10.5910    6.1750 C   0  0  0  0  0  0  0  0  0  0  0  0
   -2.6200   10.7270    5.2450 O   0  0  0  0  0  0  0  0  0  0  0  0
   -2.9970    2.9770   -0.6590 O   0  0  0  0  0  0  0  0  0  0  0  0
   -3.3210    1.0210    1.0480 O   0  0  0  0  0  0  0  0  0  0  0  0
   -2.2890    0.3010    3.6320 C   0  0  0  0  0  0  0  0  0  0  0  0
   -4.8240    0.7250    3.8370 C   0  0  0  0  0  0  0  0  0  0  0  0
    0.1180    9.1160    6.4780 C   0  0  0  0  0  0  0  0  0  0  0  0
   -4.7260    5.4720    7.3910 C   0  0  0  0  0  0  0  0  0  0  0  0
    5.1960    1.8210    6.0870 H   0  0  0  0  0  0  0  0  0  0  0  0
    4.9100   -0.6390    5.9730 H   0  0  0  0  0  0  0  0  0  0  0  0
    5.9840   -2.1300   -4.0850 H   0  0  0  0  0  0  0  0  0  0  0  0
    4.7440    1.7130    0.2670 H   0  0  0  0  0  0  0  0  0  0  0  0
    6.2490    2.1470    1.0910 H   0  0  0  0  0  0  0  0  0  0  0  0
    6.5870    1.6810   -1.2760 H   0  0  0  0  0  0  0  0  0  0  0  0
    7.5960    0.7170   -0.2000 H   0  0  0  0  0  0  0  0  0  0  0  0
    3.4100   -5.0580    4.2470 H   0  0  0  0  0  0  0  0  0  0  0  0
    3.9180   -5.4310    1.8680 H   0  0  0  0  0  0  0  0  0  0  0  0
    5.3520   -5.0410    2.7800 H   0  0  0  0  0  0  0  0  0  0  0  0
    0.2600   -5.0540    3.4300 H   0  0  0  0  0  0  0  0  0  0  0  0
    1.1520   -4.5670    4.8460 H   0  0  0  0  0  0  0  0  0  0  0  0
    4.8110   -4.9800   -1.2720 H   0  0  0  0  0  0  0  0  0  0  0  0
    4.5770   -3.8750   -3.5640 H   0  0  0  0  0  0  0  0  0  0  0  0
    5.9120   -2.7480    5.6630 H   0  0  0  0  0  0  0  0  0  0  0  0
    5.2360   -4.3800    5.6910 H   0  0  0  0  0  0  0  0  0  0  0  0
    6.2140   -3.8270    4.3290 H   0  0  0  0  0  0  0  0  0  0  0  0
    6.3890    3.5280    3.9810 H   0  0  0  0  0  0  0  0  0  0  0  0
    4.6290    3.7070    3.8800 H   0  0  0  0  0  0  0  0  0  0  0  0
    5.5490    3.3390    2.4440 H   0  0  0  0  0  0  0  0  0  0  0  0
    3.6250   -2.7480    6.4860 H   0  0  0  0  0  0  0  0  0  0  0  0
    2.9870   -1.4540    5.4700 H   0  0  0  0  0  0  0  0  0  0  0  0
    2.2440   -2.9920    5.4910 H   0  0  0  0  0  0  0  0  0  0  0  0
   -0.0020   -1.5060   -3.3990 H   0  0  0  0  0  0  0  0  0  0  0  0
   -2.1560   -3.0890   -4.8360 H   0  0  0  0  0  0  0  0  0  0  0  0
    2.4950   -0.0240    0.4840 H   0  0  0  0  0  0  0  0  0  0  0  0
    1.3230   -0.9270    2.4060 H   0  0  0  0  0  0  0  0  0  0  0  0
   -6.8010   -5.1380    1.8480 H   0  0  0  0  0  0  0  0  0  0  0  0
   -5.0840   -4.5500    3.5740 H   0  0  0  0  0  0  0  0  0  0  0  0
   -2.7610   -3.7030    4.1630 H   0  0  0  0  0  0  0  0  0  0  0  0
   -6.4170   -5.7010   -2.9720 H   0  0  0  0  0  0  0  0  0  0  0  0
   -1.6340   -5.7620    2.7520 H   0  0  0  0  0  0  0  0  0  0  0  0
    2.8310   -0.5370   -1.7640 H   0  0  0  0  0  0  0  0  0  0  0  0
   -7.7280   -5.8000   -1.4480 H   0  0  0  0  0  0  0  0  0  0  0  0
   -6.1360   -2.7200   -3.4690 H   0  0  0  0  0  0  0  0  0  0  0  0
   -7.4050   -3.8470   -3.9590 H   0  0  0  0  0  0  0  0  0  0  0  0
   -7.3360   -3.2480   -2.3040 H   0  0  0  0  0  0  0  0  0  0  0  0
   -3.0910   -6.4330   -4.3150 H   0  0  0  0  0  0  0  0  0  0  0  0
   -4.7230   -7.0510   -4.0180 H   0  0  0  0  0  0  0  0  0  0  0  0
   -3.6830   -6.5930   -2.6630 H   0  0  0  0  0  0  0  0  0  0  0  0
   -4.7290   -1.7670    2.3390 H   0  0  0  0  0  0  0  0  0  0  0  0
   -6.1600   -2.4320    3.0820 H   0  0  0  0  0  0  0  0  0  0  0  0
   -4.9530   -2.5010    5.3080 H   0  0  0  0  0  0  0  0  0  0  0  0
   -3.5740   -1.7360    4.5380 H   0  0  0  0  0  0  0  0  0  0  0  0
   -4.0540   -4.8240   -5.8930 H   0  0  0  0  0  0  0  0  0  0  0  0
   -5.7280   -5.2640   -5.5540 H   0  0  0  0  0  0  0  0  0  0  0  0
   -5.2080   -3.5740   -5.4090 H   0  0  0  0  0  0  0  0  0  0  0  0
   -5.0430   -0.1450    5.8150 H   0  0  0  0  0  0  0  0  0  0  0  0
   -6.3420   -0.5100    4.7100 H   0  0  0  0  0  0  0  0  0  0  0  0
    5.8860   -2.0840   -9.2200 H   0  0  0  0  0  0  0  0  0  0  0  0
    3.3830   -2.2050   -8.8920 H   0  0  0  0  0  0  0  0  0  0  0  0
    4.6910    1.4910   -3.9800 H   0  0  0  0  0  0  0  0  0  0  0  0
    0.4250   -1.5220   -8.4910 H   0  0  0  0  0  0  0  0  0  0  0  0
    0.6930   -0.0100   -9.4550 H   0  0  0  0  0  0  0  0  0  0  0  0
    2.1990    2.4350   -3.7500 H   0  0  0  0  0  0  0  0  0  0  0  0
   -5.7850    2.1870   -6.1870 H   0  0  0  0  0  0  0  0  0  0  0  0
   -4.6060    3.4100   -4.4190 H   0  0  0  0  0  0  0  0  0  0  0  0
   -2.4740    3.9660   -3.2330 H   0  0  0  0  0  0  0  0  0  0  0  0
   -2.0110   -1.2010   -9.3010 H   0  0  0  0  0  0  0  0  0  0  0  0
   -2.5720    0.3970   -9.8260 H   0  0  0  0  0  0  0  0  0  0  0  0
   -3.9340   -1.4780   -7.8130 H   0  0  0  0  0  0  0  0  0  0  0  0
   -4.4920   -1.1360   -9.4510 H   0  0  0  0  0  0  0  0  0  0  0  0
   -4.9840    1.1960   -8.8820 H   0  0  0  0  0  0  0  0  0  0  0  0
   -5.7150    0.1460   -7.6660 H   0  0  0  0  0  0  0  0  0  0  0  0
    2.7400   -0.5980  -12.0130 H   0  0  0  0  0  0  0  0  0  0  0  0
    2.5130   -2.0350  -11.0270 H   0  0  0  0  0  0  0  0  0  0  0  0
    5.2950   -1.2920  -12.0980 H   0  0  0  0  0  0  0  0  0  0  0  0
    4.1360   -2.1800  -13.0910 H   0  0  0  0  0  0  0  0  0  0  0  0
    4.7120   -2.8730  -11.5640 H   0  0  0  0  0  0  0  0  0  0  0  0
    7.5990   -0.7440   -4.8350 H   0  0  0  0  0  0  0  0  0  0  0  0
    7.7050    1.0090   -4.9530 H   0  0  0  0  0  0  0  0  0  0  0  0
   -0.5330    3.9080   -1.7200 H   0  0  0  0  0  0  0  0  0  0  0  0
    0.2620    4.9450   -2.9260 H   0  0  0  0  0  0  0  0  0  0  0  0
    1.0650    3.4930   -2.2970 H   0  0  0  0  0  0  0  0  0  0  0  0
   -1.4700    8.3080    4.2770 H   0  0  0  0  0  0  0  0  0  0  0  0
   -1.0810    7.2880    1.9230 H   0  0  0  0  0  0  0  0  0  0  0  0
   -2.4920    8.2690    2.3730 H   0  0  0  0  0  0  0  0  0  0  0  0
   -3.9190    7.1750    0.7570 H   0  0  0  0  0  0  0  0  0  0  0  0
   -2.4990    7.8620   -0.0360 H   0  0  0  0  0  0  0  0  0  0  0  0
   -1.4050    5.6620   -0.1110 H   0  0  0  0  0  0  0  0  0  0  0  0
   -3.0210    5.5740   -0.8190 H   0  0  0  0  0  0  0  0  0  0  0  0
   -4.8740    2.9480    5.7190 H   0  0  0  0  0  0  0  0  0  0  0  0
   -3.4830    3.3490    6.7470 H   0  0  0  0  0  0  0  0  0  0  0  0
   -3.2670    1.0600    6.1130 H   0  0  0  0  0  0  0  0  0  0  0  0
   -1.9710    2.0380    5.4500 H   0  0  0  0  0  0  0  0  0  0  0  0
   -1.1290   10.3730    8.6750 H   0  0  0  0  0  0  0  0  0  0  0  0
   -0.8790    8.6400    8.8310 H   0  0  0  0  0  0  0  0  0  0  0  0
   -3.0160    9.3920    9.8680 H   0  0  0  0  0  0  0  0  0  0  0  0
   -3.5870    9.9590    8.3010 H   0  0  0  0  0  0  0  0  0  0  0  0
   -4.4910    7.7950    8.6330 H   0  0  0  0  0  0  0  0  0  0  0  0
   -2.9520    7.1060    9.1840 H   0  0  0  0  0  0  0  0  0  0  0  0
   -1.3530   11.4890    6.6070 H   0  0  0  0  0  0  0  0  0  0  0  0
   -3.5990    3.6020   -1.1010 H   0  0  0  0  0  0  0  0  0  0  0  0
   -3.0740    1.1040    0.1040 H   0  0  0  0  0  0  0  0  0  0  0  0
   -2.5760   -0.3660    2.8170 H   0  0  0  0  0  0  0  0  0  0  0  0
   -2.0710   -0.3220    4.5020 H   0  0  0  0  0  0  0  0  0  0  0  0
   -1.3390    0.7810    3.3590 H   0  0  0  0  0  0  0  0  0  0  0  0
   -5.0160    0.4020    2.8080 H   0  0  0  0  0  0  0  0  0  0  0  0
   -5.5480    1.5420    3.9930 H   0  0  0  0  0  0  0  0  0  0  0  0
    0.5060    8.1500    6.8230 H   0  0  0  0  0  0  0  0  0  0  0  0
    0.7050    9.9040    6.9640 H   0  0  0  0  0  0  0  0  0  0  0  0
    0.3230    9.1890    5.4050 H   0  0  0  0  0  0  0  0  0  0  0  0
   -4.3230    5.0440    8.3090 H   0  0  0  0  0  0  0  0  0  0  0  0
   -5.4830    6.2150    7.6570 H   0  0  0  0  0  0  0  0  0  0  0  0
   -5.2980    4.7220    6.8490 H   0  0  0  0  0  0  0  0  0  0  0  0
  1  2  2  0
  1  4  1  0
  1 10  1  0
  2  5  1  0
  2 13  1  0
  3  6  2  0
  3  7  1  0
  3137  1  0
  4  8  2  0
  4 18  1  0
  5  9  2  0
  5 20  1  0
  6  8  1  0
  6 30  1  0
  7  9  1  0
  7138  1  0
  8  9  1  0
 10 11  2  0
 10 14  1  0
 11 12  1  0
 11 17  1  0
 12 13  2  0
 12 26  1  0
 13 22  1  0
 14 15  2  0
 14 19  1  0
 15 16  1  0
 15 27  1  0
 16 17  2  0
 16139  1  0
 17 28  1  0
 18 19  1  0
 18140  1  0
 18141  1  0
 19142  1  0
 19143  1  0
 20 21  1  0
 20 29  1  1
 20 31  1  0
 21 22  1  0
 21 23  1  0
 21144  1  1
 22145  1  0
 22146  1  0
 23 24  2  0
 23 25  1  0
 25 60  1  0
 25147  1  0
 25148  1  0
 26149  1  0
 27103  1  0
 28150  1  0
 29151  1  0
 29152  1  0
 29153  1  0
 30154  1  0
 30155  1  0
 30156  1  0
 31157  1  0
 31158  1  0
 31159  1  0
 32 34  1  0
 32 36  2  0
 32 44  1  0
 33 35  2  0
 33 37  1  0
 33 50  1  0
 34 40  2  0
 34 47  1  0
 35 40  1  0
 35 49  1  0
 36 41  1  0
 36160  1  0
 37 42  2  0
 37 53  1  0
 38 39  2  0
 38 41  1  0
 38161  1  0
 39 42  1  0
 39 57  1  0
 40 43  1  0
 41 43  2  0
 42 43  1  0
 44 45  2  0
 44 61  1  0
 45 46  1  0
 45162  1  0
 46 47  2  0
 46163  1  0
 47 48  1  0
 48 49  2  0
 48 60  1  0
 49 55  1  0
 50 51  2  0
 50 54  1  0
 51 52  1  0
 51164  1  0
 52 53  2  0
 52 62  1  0
 53 56  1  0
 54 55  1  0
 54 65  1  0
 54165  1  1
 55 58  1  0
 55166  1  1
 56 57  1  0
 56 63  1  0
 56167  1  1
 57 64  1  6
 57 67  1  0
 58 59  2  0
 58168  1  0
 61169  1  0
 62170  1  0
 63171  1  0
 63172  1  0
 63173  1  0
 64174  1  0
 64175  1  0
 64176  1  0
 65 66  1  0
 65177  1  0
 65178  1  0
 66 68  1  0
 66179  1  0
 66180  1  0
 67181  1  0
 67182  1  0
 67183  1  0
 68134  1  0
 68184  1  0
 68185  1  0
 69 70  2  0
 69 72  1  0
 69 90  1  0
 70 74  1  0
 70 93  1  0
 71 73  2  0
 71 75  1  0
 71186  1  0
 72 81  2  0
 72 96  1  0
 73 80  1  0
 74 83  2  0
 74 88  1  0
 75 84  1  0
 75 99  1  0
 75187  1  6
 76 77  1  0
 76 80  2  0
 76103  1  0
 77 82  1  0
 77188  1  0
 78 81  1  0
 78 86  1  0
 78189  1  0
 78190  1  0
 79 82  1  0
 79 85  2  0
 79 89  1  0
 80 87  1  0
 81 83  1  0
 82 87  2  0
 83 85  1  0
 84 86  2  0
 84 87  1  0
 85 86  1  0
 88 89  2  0
 88 95  1  0
 89191  1  0
 90 91  2  0
 90 98  1  0
 91 92  1  0
 91192  1  0
 92 93  2  0
 92193  1  0
 93 94  1  0
 94 95  2  0
 94194  1  0
 95104  1  0
 96 97  1  0
 96195  1  0
 96196  1  0
 97 98  1  0
 97197  1  0
 97198  1  0
 98199  1  0
 98200  1  0
 99100  2  0
 99101  1  0
101102  1  0
101201  1  0
101202  1  0
102203  1  0
102204  1  0
102205  1  0
103206  1  0
103207  1  0
104208  1  0
104209  1  0
104210  1  0
105106  2  0
105109  1  0
105115  1  0
106110  1  0
106118  1  0
107108  1  0
107111  2  0
107125  1  0
108112  2  0
108128  1  0
109113  2  0
109119  1  0
110114  2  0
110122  1  0
111113  1  0
111211  1  0
112114  1  0
112136  1  0
113114  1  0
115116  2  0
115121  1  0
116117  1  0
116131  1  0
117118  2  0
117132  1  0
118124  1  0
119120  1  0
119212  1  0
119213  1  0
120121  1  0
120214  1  0
120215  1  0
121216  1  0
121217  1  0
122123  1  0
122218  1  0
122219  1  0
123124  1  0
123220  1  0
123221  1  0
124133  1  6
124134  1  0
125126  1  0
125129  1  0
125135  1  1
126127  1  0
126222  1  0
126223  1  0
127128  1  0
127224  1  0
127225  1  0
128226  1  0
128227  1  0
129130  2  0
129228  1  0
131229  1  0
132230  1  0
133231  1  0
133232  1  0
133233  1  0
134234  1  0
134235  1  0
135236  1  0
135237  1  0
135238  1  0
136239  1  0
136240  1  0
136241  1  0
M  END
